REMARK  2 active torsions:
REMARK  status: ('A' for Active; 'I' for Inactive)
REMARK    1  A    between atoms: C2_2  and  O11_6 
REMARK    2  A    between atoms: C6_4  and  O13_13 
ROOT
HETATM    1  N1  CFF A 330      31.301 -32.823 -17.296  1.00147.73    -0.296 N 
HETATM    2  C2  CFF A 330      29.972 -32.444 -17.394  1.00148.15     0.228 A 
HETATM    3  C10 CFF A 330      31.669 -34.173 -16.820  1.00138.32     0.162 C 
HETATM    4  C6  CFF A 330      32.297 -31.927 -17.621  1.00147.40     0.176 A 
HETATM    5  N3  CFF A 330      29.638 -31.174 -17.817  1.00149.30    -0.301 N 
HETATM    6  C12 CFF A 330      28.227 -30.777 -17.908  1.00147.42     0.161 C 
HETATM    7  C4  CFF A 330      30.637 -30.303 -18.136  1.00146.85     0.143 A 
HETATM    8  C5  CFF A 330      31.946 -30.642 -18.045  1.00145.81     0.131 A 
HETATM    9  N9  CFF A 330      30.490 -29.031 -18.564  1.00147.23    -0.336 N 
ATOM     10  H9  CFF A 330      29.630 -28.506 -18.723  1.00  0.00     0.168 HD
HETATM   11  N7  CFF A 330      32.685 -29.582 -18.425  1.00147.22    -0.341 N 
HETATM   12  C8  CFF A 330      31.775 -28.628 -18.730  1.00148.06     0.184 A 
HETATM   13  C14 CFF A 330      34.130 -29.400 -18.505  1.00145.92     0.157 C 
ENDROOT
BRANCH   2  14
HETATM   14  O11 CFF A 330      28.989 -33.321 -17.069  1.00142.40    -0.332 OA
ATOM     15  H11 CFF A 330      29.219 -34.196 -16.778  1.00  0.00     0.221 HD
ENDBRANCH   2  14
BRANCH   4  16
HETATM   16  O13 CFF A 330      33.591 -32.295 -17.519  1.00147.52    -0.344 OA
ATOM     17  H13 CFF A 330      33.830 -33.168 -17.231  1.00  0.00     0.219 HD
ENDBRANCH   4  16
TORSDOF 2
