MODEL 1
REMARK VINA RESULT:      -4.9      0.000      0.000
REMARK  2 active torsions:
REMARK  status: ('A' for Active; 'I' for Inactive)
REMARK    1  A    between atoms: C2_2  and  O11_6 
REMARK    2  A    between atoms: C6_4  and  O13_13 
ROOT
HETATM    1  N1  CFF A 330       8.074 -35.748 -32.886  1.00147.73    -0.296 N 
HETATM    2  C2  CFF A 330       9.288 -35.769 -32.218  1.00148.15     0.228 A 
HETATM    3  C10 CFF A 330       7.175 -34.579 -32.784  1.00138.32     0.162 C 
HETATM    4  C6  CFF A 330       7.683 -36.837 -33.636  1.00147.40     0.176 A 
HETATM    5  N3  CFF A 330      10.111 -36.874 -32.300  1.00149.30    -0.301 N 
HETATM    6  C12 CFF A 330      11.391 -36.892 -31.581  1.00147.42     0.161 C 
HETATM    7  C4  CFF A 330       9.708 -37.940 -33.048  1.00146.85     0.143 A 
HETATM    8  C5  CFF A 330       8.524 -37.952 -33.708  1.00145.81     0.131 A 
HETATM    9  N9  CFF A 330      10.384 -39.093 -33.236  1.00147.23    -0.336 N 
ATOM     10  H9  CFF A 330      11.293 -39.368 -32.864  1.00  0.00     0.168 HD
HETATM   11  N7  CFF A 330       8.410 -39.129 -34.352  1.00147.22    -0.341 N 
HETATM   12  C8  CFF A 330       9.549 -39.793 -34.045  1.00148.06     0.184 A 
HETATM   13  C14 CFF A 330       7.344 -39.664 -35.192  1.00145.92     0.157 C 
ENDROOT
BRANCH   2  14
HETATM   14  O11 CFF A 330       9.673 -34.702 -31.475  1.00142.40    -0.332 OA
ATOM     15  H11 CFF A 330      10.311 -34.091 -31.826  1.00  0.00     0.221 HD
ENDBRANCH   2  14
BRANCH   4  16
HETATM   16  O13 CFF A 330       6.498 -36.818 -34.280  1.00147.52    -0.344 OA
ATOM     17  H13 CFF A 330       5.721 -36.465 -33.864  1.00  0.00     0.219 HD
ENDBRANCH   4  16
TORSDOF 2
ENDMDL
MODEL 2
REMARK VINA RESULT:      -4.9      1.792      4.087
REMARK  2 active torsions:
REMARK  status: ('A' for Active; 'I' for Inactive)
REMARK    1  A    between atoms: C2_2  and  O11_6 
REMARK    2  A    between atoms: C6_4  and  O13_13 
ROOT
HETATM    1  N1  CFF A 330       8.520 -36.250 -32.962  1.00147.73    -0.296 N 
HETATM    2  C2  CFF A 330       9.062 -37.506 -33.182  1.00148.15     0.228 A 
HETATM    3  C10 CFF A 330       7.132 -35.944 -33.368  1.00138.32     0.162 C 
HETATM    4  C6  CFF A 330       9.286 -35.263 -32.381  1.00147.40     0.176 A 
HETATM    5  N3  CFF A 330      10.366 -37.776 -32.821  1.00149.30    -0.301 N 
HETATM    6  C12 CFF A 330      10.936 -39.107 -33.068  1.00147.42     0.161 C 
HETATM    7  C4  CFF A 330      11.107 -36.787 -32.245  1.00146.85     0.143 A 
HETATM    8  C5  CFF A 330      10.607 -35.548 -32.022  1.00145.81     0.131 A 
HETATM    9  N9  CFF A 330      12.390 -36.879 -31.834  1.00147.23    -0.336 N 
ATOM     10  H9  CFF A 330      13.019 -37.681 -31.876  1.00  0.00     0.168 HD
HETATM   11  N7  CFF A 330      11.569 -34.801 -31.446  1.00147.22    -0.341 N 
HETATM   12  C8  CFF A 330      12.630 -35.635 -31.349  1.00148.06     0.184 A 
HETATM   13  C14 CFF A 330      11.570 -33.409 -31.011  1.00145.92     0.157 C 
ENDROOT
BRANCH   2  14
HETATM   14  O11 CFF A 330       8.313 -38.479 -33.760  1.00142.40    -0.332 OA
ATOM     15  H11 CFF A 330       7.522 -38.780 -33.327  1.00  0.00     0.221 HD
ENDBRANCH   2  14
BRANCH   4  16
HETATM   16  O13 CFF A 330       8.759 -34.038 -32.173  1.00147.52    -0.344 OA
ATOM     17  H13 CFF A 330       7.952 -33.930 -31.684  1.00  0.00     0.219 HD
ENDBRANCH   4  16
TORSDOF 2
ENDMDL
MODEL 3
REMARK VINA RESULT:      -4.8      1.451      3.128
REMARK  2 active torsions:
REMARK  status: ('A' for Active; 'I' for Inactive)
REMARK    1  A    between atoms: C2_2  and  O11_6 
REMARK    2  A    between atoms: C6_4  and  O13_13 
ROOT
HETATM    1  N1  CFF A 330      10.223 -35.829 -31.980  1.00147.73    -0.296 N 
HETATM    2  C2  CFF A 330       8.928 -35.519 -32.363  1.00148.15     0.228 A 
HETATM    3  C10 CFF A 330      11.035 -34.864 -31.210  1.00138.32     0.162 C 
HETATM    4  C6  CFF A 330      10.775 -37.040 -32.340  1.00147.40     0.176 A 
HETATM    5  N3  CFF A 330       8.186 -36.416 -33.102  1.00149.30    -0.301 N 
HETATM    6  C12 CFF A 330       6.817 -36.075 -33.513  1.00147.42     0.161 C 
HETATM    7  C4  CFF A 330       8.748 -37.609 -33.447  1.00146.85     0.143 A 
HETATM    8  C5  CFF A 330      10.014 -37.939 -33.092  1.00145.81     0.131 A 
HETATM    9  N9  CFF A 330       8.168 -38.596 -34.162  1.00147.23    -0.336 N 
ATOM     10  H9  CFF A 330       7.230 -38.628 -34.563  1.00  0.00     0.168 HD
HETATM   11  N7  CFF A 330      10.281 -39.169 -33.573  1.00147.22    -0.341 N 
HETATM   12  C8  CFF A 330       9.146 -39.534 -34.213  1.00148.06     0.184 A 
HETATM   13  C14 CFF A 330      11.484 -39.989 -33.491  1.00145.92     0.157 C 
ENDROOT
BRANCH   2  14
HETATM   14  O11 CFF A 330       8.384 -34.325 -32.016  1.00142.40    -0.332 OA
ATOM     15  H11 CFF A 330       8.806 -33.520 -32.291  1.00  0.00     0.221 HD
ENDBRANCH   2  14
BRANCH   4  16
HETATM   16  O13 CFF A 330      12.038 -37.338 -31.972  1.00147.52    -0.344 OA
ATOM     17  H13 CFF A 330      12.589 -37.889 -32.516  1.00  0.00     0.219 HD
ENDBRANCH   4  16
TORSDOF 2
ENDMDL
MODEL 4
REMARK VINA RESULT:      -4.8      1.752      4.542
REMARK  2 active torsions:
REMARK  status: ('A' for Active; 'I' for Inactive)
REMARK    1  A    between atoms: C2_2  and  O11_6 
REMARK    2  A    between atoms: C6_4  and  O13_13 
ROOT
HETATM    1  N1  CFF A 330       9.226 -38.118 -33.530  1.00147.73    -0.296 N 
HETATM    2  C2  CFF A 330       8.138 -37.261 -33.526  1.00148.15     0.228 A 
HETATM    3  C10 CFF A 330       9.132 -39.456 -34.153  1.00138.32     0.162 C 
HETATM    4  C6  CFF A 330      10.405 -37.735 -32.928  1.00147.40     0.176 A 
HETATM    5  N3  CFF A 330       8.227 -36.023 -32.923  1.00149.30    -0.301 N 
HETATM    6  C12 CFF A 330       7.065 -35.125 -32.914  1.00147.42     0.161 C 
HETATM    7  C4  CFF A 330       9.402 -35.662 -32.334  1.00146.85     0.143 A 
HETATM    8  C5  CFF A 330      10.482 -36.480 -32.316  1.00145.81     0.131 A 
HETATM    9  N9  CFF A 330       9.661 -34.497 -31.703  1.00147.23    -0.336 N 
ATOM     10  H9  CFF A 330       9.044 -33.698 -31.557  1.00  0.00     0.168 HD
HETATM   11  N7  CFF A 330      11.481 -35.849 -31.670  1.00147.22    -0.341 N 
HETATM   12  C8  CFF A 330      10.951 -34.657 -31.312  1.00148.06     0.184 A 
HETATM   13  C14 CFF A 330      12.841 -36.274 -31.360  1.00145.92     0.157 C 
ENDROOT
BRANCH   2  14
HETATM   14  O11 CFF A 330       6.974 -37.636 -34.113  1.00142.40    -0.332 OA
ATOM     15  H11 CFF A 330       6.270 -37.004 -34.207  1.00  0.00     0.221 HD
ENDBRANCH   2  14
BRANCH   4  16
HETATM   16  O13 CFF A 330      11.462 -38.574 -32.927  1.00147.52    -0.344 OA
ATOM     17  H13 CFF A 330      12.307 -38.295 -33.259  1.00  0.00     0.219 HD
ENDBRANCH   4  16
TORSDOF 2
ENDMDL
MODEL 5
REMARK VINA RESULT:      -4.7      0.841      3.468
REMARK  2 active torsions:
REMARK  status: ('A' for Active; 'I' for Inactive)
REMARK    1  A    between atoms: C2_2  and  O11_6 
REMARK    2  A    between atoms: C6_4  and  O13_13 
ROOT
HETATM    1  N1  CFF A 330       7.757 -35.871 -32.962  1.00147.73    -0.296 N 
HETATM    2  C2  CFF A 330       7.392 -36.955 -33.744  1.00148.15     0.228 A 
HETATM    3  C10 CFF A 330       6.834 -34.733 -32.770  1.00138.32     0.162 C 
HETATM    4  C6  CFF A 330       9.003 -35.836 -32.374  1.00147.40     0.176 A 
HETATM    5  N3  CFF A 330       8.268 -38.003 -33.937  1.00149.30    -0.301 N 
HETATM    6  C12 CFF A 330       7.877 -39.144 -34.775  1.00147.42     0.161 C 
HETATM    7  C4  CFF A 330       9.495 -37.951 -33.345  1.00146.85     0.143 A 
HETATM    8  C5  CFF A 330       9.884 -36.902 -32.580  1.00145.81     0.131 A 
HETATM    9  N9  CFF A 330      10.469 -38.883 -33.428  1.00147.23    -0.336 N 
ATOM     10  H9  CFF A 330      10.463 -39.770 -33.933  1.00  0.00     0.168 HD
HETATM   11  N7  CFF A 330      11.134 -37.141 -32.139  1.00147.22    -0.341 N 
HETATM   12  C8  CFF A 330      11.456 -38.343 -32.670  1.00148.06     0.184 A 
HETATM   13  C14 CFF A 330      12.022 -36.345 -31.299  1.00145.92     0.157 C 
ENDROOT
BRANCH   2  14
HETATM   14  O11 CFF A 330       6.168 -36.990 -34.329  1.00142.40    -0.332 OA
ATOM     15  H11 CFF A 330       5.682 -36.182 -34.449  1.00  0.00     0.221 HD
ENDBRANCH   2  14
BRANCH   4  16
HETATM   16  O13 CFF A 330       9.360 -34.777 -31.619  1.00147.52    -0.344 OA
ATOM     17  H13 CFF A 330       9.789 -34.897 -30.780  1.00  0.00     0.219 HD
ENDBRANCH   4  16
TORSDOF 2
ENDMDL
MODEL 6
REMARK VINA RESULT:      -4.7      2.582      4.355
REMARK  2 active torsions:
REMARK  status: ('A' for Active; 'I' for Inactive)
REMARK    1  A    between atoms: C2_2  and  O11_6 
REMARK    2  A    between atoms: C6_4  and  O13_13 
ROOT
HETATM    1  N1  CFF A 330       7.768 -38.672 -36.728  1.00147.73    -0.296 N 
HETATM    2  C2  CFF A 330       6.925 -37.934 -35.914  1.00148.15     0.228 A 
HETATM    3  C10 CFF A 330       7.339 -39.091 -38.079  1.00138.32     0.162 C 
HETATM    4  C6  CFF A 330       9.013 -39.046 -36.269  1.00147.40     0.176 A 
HETATM    5  N3  CFF A 330       7.324 -37.567 -34.645  1.00149.30    -0.301 N 
HETATM    6  C12 CFF A 330       6.420 -36.793 -33.785  1.00147.42     0.161 C 
HETATM    7  C4  CFF A 330       8.560 -37.944 -34.210  1.00146.85     0.143 A 
HETATM    8  C5  CFF A 330       9.405 -38.671 -34.981  1.00145.81     0.131 A 
HETATM    9  N9  CFF A 330       9.107 -37.673 -33.006  1.00147.23    -0.336 N 
ATOM     10  H9  CFF A 330       8.708 -37.151 -32.226  1.00  0.00     0.168 HD
HETATM   11  N7  CFF A 330      10.537 -38.884 -34.283  1.00147.22    -0.341 N 
HETATM   12  C8  CFF A 330      10.323 -38.269 -33.097  1.00148.06     0.184 A 
HETATM   13  C14 CFF A 330      11.755 -39.608 -34.629  1.00145.92     0.157 C 
ENDROOT
BRANCH   2  14
HETATM   14  O11 CFF A 330       5.696 -37.569 -36.359  1.00142.40    -0.332 OA
ATOM     15  H11 CFF A 330       5.540 -37.491 -37.294  1.00  0.00     0.221 HD
ENDBRANCH   2  14
BRANCH   4  16
HETATM   16  O13 CFF A 330       9.831 -39.771 -37.060  1.00147.52    -0.344 OA
ATOM     17  H13 CFF A 330      10.430 -40.408 -36.691  1.00  0.00     0.219 HD
ENDBRANCH   4  16
TORSDOF 2
ENDMDL
MODEL 7
REMARK VINA RESULT:      -4.7      1.816      4.775
REMARK  2 active torsions:
REMARK  status: ('A' for Active; 'I' for Inactive)
REMARK    1  A    between atoms: C2_2  and  O11_6 
REMARK    2  A    between atoms: C6_4  and  O13_13 
ROOT
HETATM    1  N1  CFF A 330       9.355 -39.089 -33.849  1.00147.73    -0.296 N 
HETATM    2  C2  CFF A 330       8.114 -38.949 -34.448  1.00148.15     0.228 A 
HETATM    3  C10 CFF A 330      10.142 -40.327 -34.022  1.00138.32     0.162 C 
HETATM    4  C6  CFF A 330       9.857 -38.074 -33.062  1.00147.40     0.176 A 
HETATM    5  N3  CFF A 330       7.375 -37.798 -34.263  1.00149.30    -0.301 N 
HETATM    6  C12 CFF A 330       6.055 -37.663 -34.893  1.00147.42     0.161 C 
HETATM    7  C4  CFF A 330       7.889 -36.805 -33.483  1.00146.85     0.143 A 
HETATM    8  C5  CFF A 330       9.097 -36.914 -32.880  1.00145.81     0.131 A 
HETATM    9  N9  CFF A 330       7.305 -35.622 -33.198  1.00147.23    -0.336 N 
ATOM     10  H9  CFF A 330       6.400 -35.265 -33.506  1.00  0.00     0.168 HD
HETATM   11  N7  CFF A 330       9.328 -35.783 -32.186  1.00147.22    -0.341 N 
HETATM   12  C8  CFF A 330       8.226 -35.026 -32.399  1.00148.06     0.184 A 
HETATM   13  C14 CFF A 330      10.457 -35.381 -31.355  1.00145.92     0.157 C 
ENDROOT
BRANCH   2  14
HETATM   14  O11 CFF A 330       7.614 -39.948 -35.218  1.00142.40    -0.332 OA
ATOM     15  H11 CFF A 330       7.541 -39.824 -36.158  1.00  0.00     0.221 HD
ENDBRANCH   2  14
BRANCH   4  16
HETATM   16  O13 CFF A 330      11.063 -38.214 -32.474  1.00147.52    -0.344 OA
ATOM     17  H13 CFF A 330      11.270 -38.986 -31.961  1.00  0.00     0.219 HD
ENDBRANCH   4  16
TORSDOF 2
ENDMDL
MODEL 8
REMARK VINA RESULT:      -4.6      2.019      3.357
REMARK  2 active torsions:
REMARK  status: ('A' for Active; 'I' for Inactive)
REMARK    1  A    between atoms: C2_2  and  O11_6 
REMARK    2  A    between atoms: C6_4  and  O13_13 
ROOT
HETATM    1  N1  CFF A 330      11.071 -38.557 -33.833  1.00147.73    -0.296 N 
HETATM    2  C2  CFF A 330      10.964 -37.491 -32.954  1.00148.15     0.228 A 
HETATM    3  C10 CFF A 330      12.363 -39.246 -34.033  1.00138.32     0.162 C 
HETATM    4  C6  CFF A 330       9.969 -38.967 -34.552  1.00147.40     0.176 A 
HETATM    5  N3  CFF A 330       9.760 -36.839 -32.791  1.00149.30    -0.301 N 
HETATM    6  C12 CFF A 330       9.658 -35.704 -31.864  1.00147.42     0.161 C 
HETATM    7  C4  CFF A 330       8.680 -37.261 -33.509  1.00146.85     0.143 A 
HETATM    8  C5  CFF A 330       8.754 -38.296 -34.381  1.00145.81     0.131 A 
HETATM    9  N9  CFF A 330       7.435 -36.740 -33.472  1.00147.23    -0.336 N 
ATOM     10  H9  CFF A 330       7.086 -35.960 -32.917  1.00  0.00     0.168 HD
HETATM   11  N7  CFF A 330       7.538 -38.474 -34.930  1.00147.22    -0.341 N 
HETATM   12  C8  CFF A 330       6.767 -37.518 -34.361  1.00148.06     0.184 A 
HETATM   13  C14 CFF A 330       7.066 -39.430 -35.926  1.00145.92     0.157 C 
ENDROOT
BRANCH   2  14
HETATM   14  O11 CFF A 330      12.049 -37.080 -32.249  1.00142.40    -0.332 OA
ATOM     15  H11 CFF A 330      12.884 -36.978 -32.691  1.00  0.00     0.221 HD
ENDBRANCH   2  14
BRANCH   4  16
HETATM   16  O13 CFF A 330      10.075 -40.001 -35.413  1.00147.52    -0.344 OA
ATOM     17  H13 CFF A 330       9.333 -40.281 -35.935  1.00  0.00     0.219 HD
ENDBRANCH   4  16
TORSDOF 2
ENDMDL
MODEL 9
REMARK VINA RESULT:      -4.6      3.115      4.710
REMARK  2 active torsions:
REMARK  status: ('A' for Active; 'I' for Inactive)
REMARK    1  A    between atoms: C2_2  and  O11_6 
REMARK    2  A    between atoms: C6_4  and  O13_13 
ROOT
HETATM    1  N1  CFF A 330       8.640 -38.893 -37.168  1.00147.73    -0.296 N 
HETATM    2  C2  CFF A 330       9.177 -38.697 -35.906  1.00148.15     0.228 A 
HETATM    3  C10 CFF A 330       9.496 -39.309 -38.298  1.00138.32     0.162 C 
HETATM    4  C6  CFF A 330       7.296 -38.674 -37.384  1.00147.40     0.176 A 
HETATM    5  N3  CFF A 330       8.374 -38.286 -34.862  1.00149.30    -0.301 N 
HETATM    6  C12 CFF A 330       8.953 -38.070 -33.530  1.00147.42     0.161 C 
HETATM    7  C4  CFF A 330       7.047 -38.077 -35.095  1.00146.85     0.143 A 
HETATM    8  C5  CFF A 330       6.493 -38.254 -36.319  1.00145.81     0.131 A 
HETATM    9  N9  CFF A 330       6.124 -37.676 -34.195  1.00147.23    -0.336 N 
ATOM     10  H9  CFF A 330       6.248 -37.463 -33.205  1.00  0.00     0.168 HD
HETATM   11  N7  CFF A 330       5.179 -37.974 -36.234  1.00147.22    -0.341 N 
HETATM   12  C8  CFF A 330       4.991 -37.628 -34.939  1.00148.06     0.184 A 
HETATM   13  C14 CFF A 330       4.127 -37.991 -37.244  1.00145.92     0.157 C 
ENDROOT
BRANCH   2  14
HETATM   14  O11 CFF A 330      10.500 -38.905 -35.690  1.00142.40    -0.332 OA
ATOM     15  H11 CFF A 330      11.094 -38.164 -35.674  1.00  0.00     0.221 HD
ENDBRANCH   2  14
BRANCH   4  16
HETATM   16  O13 CFF A 330       6.775 -38.859 -38.615  1.00147.52    -0.344 OA
ATOM     17  H13 CFF A 330       5.857 -38.687 -38.789  1.00  0.00     0.219 HD
ENDBRANCH   4  16
TORSDOF 2
ENDMDL
