MODEL 1
REMARK VINA RESULT:      -5.0      0.000      0.000
REMARK  2 active torsions:
REMARK  status: ('A' for Active; 'I' for Inactive)
REMARK    1  A    between atoms: C2_2  and  O11_6 
REMARK    2  A    between atoms: C6_4  and  O13_13 
ROOT
HETATM    1  N1  CFF A 330       7.668 -32.454 -31.880  1.00147.73    -0.296 N 
HETATM    2  C2  CFF A 330       7.948 -33.462 -32.789  1.00148.15     0.228 A 
HETATM    3  C10 CFF A 330       6.386 -31.721 -31.935  1.00138.32     0.162 C 
HETATM    4  C6  CFF A 330       8.602 -32.110 -30.926  1.00147.40     0.176 A 
HETATM    5  N3  CFF A 330       9.157 -34.125 -32.745  1.00149.30    -0.301 N 
HETATM    6  C12 CFF A 330       9.449 -35.185 -33.719  1.00147.42     0.161 C 
HETATM    7  C4  CFF A 330      10.067 -33.772 -31.793  1.00146.85     0.143 A 
HETATM    8  C5  CFF A 330       9.825 -32.788 -30.894  1.00145.81     0.131 A 
HETATM    9  N9  CFF A 330      11.290 -34.314 -31.609  1.00147.23    -0.336 N 
ATOM     10  H9  CFF A 330      11.741 -35.064 -32.132  1.00  0.00     0.168 HD
HETATM   11  N7  CFF A 330      10.901 -32.674 -30.092  1.00147.22    -0.341 N 
HETATM   12  C8  CFF A 330      11.765 -33.608 -30.551  1.00148.06     0.184 A 
HETATM   13  C14 CFF A 330      11.174 -31.775 -28.976  1.00145.92     0.157 C 
ENDROOT
BRANCH   2  14
HETATM   14  O11 CFF A 330       7.033 -33.799 -33.733  1.00142.40    -0.332 OA
ATOM     15  H11 CFF A 330       6.602 -33.115 -34.233  1.00  0.00     0.221 HD
ENDBRANCH   2  14
BRANCH   4  16
HETATM   16  O13 CFF A 330       8.332 -31.124 -30.046  1.00147.52    -0.344 OA
ATOM     17  H13 CFF A 330       8.800 -31.063 -29.222  1.00  0.00     0.219 HD
ENDBRANCH   4  16
TORSDOF 2
ENDMDL
MODEL 2
REMARK VINA RESULT:      -5.0      1.190      3.777
REMARK  2 active torsions:
REMARK  status: ('A' for Active; 'I' for Inactive)
REMARK    1  A    between atoms: C2_2  and  O11_6 
REMARK    2  A    between atoms: C6_4  and  O13_13 
ROOT
HETATM    1  N1  CFF A 330       7.374 -32.117 -31.859  1.00147.73    -0.296 N 
HETATM    2  C2  CFF A 330       8.509 -32.168 -31.067  1.00148.15     0.228 A 
HETATM    3  C10 CFF A 330       6.322 -31.110 -31.608  1.00138.32     0.162 C 
HETATM    4  C6  CFF A 330       7.207 -33.027 -32.881  1.00147.40     0.176 A 
HETATM    5  N3  CFF A 330       9.476 -33.126 -31.294  1.00149.30    -0.301 N 
HETATM    6  C12 CFF A 330      10.671 -33.181 -30.442  1.00147.42     0.161 C 
HETATM    7  C4  CFF A 330       9.294 -34.016 -32.310  1.00146.85     0.143 A 
HETATM    8  C5  CFF A 330       8.192 -33.995 -33.099  1.00145.81     0.131 A 
HETATM    9  N9  CFF A 330      10.133 -35.011 -32.669  1.00147.23    -0.336 N 
ATOM     10  H9  CFF A 330      11.030 -35.270 -32.258  1.00  0.00     0.168 HD
HETATM   11  N7  CFF A 330       8.300 -34.987 -34.004  1.00147.22    -0.341 N 
HETATM   12  C8  CFF A 330       9.482 -35.580 -33.715  1.00148.06     0.184 A 
HETATM   13  C14 CFF A 330       7.402 -35.413 -35.071  1.00145.92     0.157 C 
ENDROOT
BRANCH   2  14
HETATM   14  O11 CFF A 330       8.674 -31.278 -30.056  1.00142.40    -0.332 OA
ATOM     15  H11 CFF A 330       7.948 -31.091 -29.473  1.00  0.00     0.221 HD
ENDBRANCH   2  14
BRANCH   4  16
HETATM   16  O13 CFF A 330       6.098 -32.980 -33.648  1.00147.52    -0.344 OA
ATOM     17  H13 CFF A 330       6.074 -32.458 -34.441  1.00  0.00     0.219 HD
ENDBRANCH   4  16
TORSDOF 2
ENDMDL
MODEL 3
REMARK VINA RESULT:      -4.9      1.633      4.068
REMARK  2 active torsions:
REMARK  status: ('A' for Active; 'I' for Inactive)
REMARK    1  A    between atoms: C2_2  and  O11_6 
REMARK    2  A    between atoms: C6_4  and  O13_13 
ROOT
HETATM    1  N1  CFF A 330       9.886 -32.777 -30.835  1.00147.73    -0.296 N 
HETATM    2  C2  CFF A 330       8.633 -32.211 -31.006  1.00148.15     0.228 A 
HETATM    3  C10 CFF A 330      10.787 -32.311 -29.760  1.00138.32     0.162 C 
HETATM    4  C6  CFF A 330      10.313 -33.771 -31.690  1.00147.40     0.176 A 
HETATM    5  N3  CFF A 330       7.808 -32.636 -32.027  1.00149.30    -0.301 N 
HETATM    6  C12 CFF A 330       6.486 -32.023 -32.207  1.00147.42     0.161 C 
HETATM    7  C4  CFF A 330       8.248 -33.622 -32.860  1.00146.85     0.143 A 
HETATM    8  C5  CFF A 330       9.469 -34.192 -32.722  1.00145.81     0.131 A 
HETATM    9  N9  CFF A 330       7.575 -34.154 -33.902  1.00147.23    -0.336 N 
ATOM     10  H9  CFF A 330       6.642 -33.923 -34.246  1.00  0.00     0.168 HD
HETATM   11  N7  CFF A 330       9.612 -35.124 -33.683  1.00147.22    -0.341 N 
HETATM   12  C8  CFF A 330       8.452 -35.074 -34.378  1.00148.06     0.184 A 
HETATM   13  C14 CFF A 330      10.723 -36.015 -33.997  1.00145.92     0.157 C 
ENDROOT
BRANCH   2  14
HETATM   14  O11 CFF A 330       8.212 -31.228 -30.171  1.00142.40    -0.332 OA
ATOM     15  H11 CFF A 330       8.539 -31.199 -29.279  1.00  0.00     0.221 HD
ENDBRANCH   2  14
BRANCH   4  16
HETATM   16  O13 CFF A 330      11.536 -34.318 -31.526  1.00147.52    -0.344 OA
ATOM     17  H13 CFF A 330      11.977 -34.288 -30.685  1.00  0.00     0.219 HD
ENDBRANCH   4  16
TORSDOF 2
ENDMDL
MODEL 4
REMARK VINA RESULT:      -4.9      2.647      5.636
REMARK  2 active torsions:
REMARK  status: ('A' for Active; 'I' for Inactive)
REMARK    1  A    between atoms: C2_2  and  O11_6 
REMARK    2  A    between atoms: C6_4  and  O13_13 
ROOT
HETATM    1  N1  CFF A 330       9.947 -35.100 -33.999  1.00147.73    -0.296 N 
HETATM    2  C2  CFF A 330       9.802 -34.095 -33.056  1.00148.15     0.228 A 
HETATM    3  C10 CFF A 330      11.266 -35.716 -34.250  1.00138.32     0.162 C 
HETATM    4  C6  CFF A 330       8.856 -35.518 -34.732  1.00147.40     0.176 A 
HETATM    5  N3  CFF A 330       8.571 -33.509 -32.845  1.00149.30    -0.301 N 
HETATM    6  C12 CFF A 330       8.428 -32.438 -31.851  1.00147.42     0.161 C 
HETATM    7  C4  CFF A 330       7.504 -33.937 -33.578  1.00146.85     0.143 A 
HETATM    8  C5  CFF A 330       7.615 -34.914 -34.511  1.00145.81     0.131 A 
HETATM    9  N9  CFF A 330       6.237 -33.477 -33.500  1.00147.23    -0.336 N 
ATOM     10  H9  CFF A 330       5.858 -32.748 -32.896  1.00  0.00     0.168 HD
HETATM   11  N7  CFF A 330       6.402 -35.115 -35.060  1.00147.22    -0.341 N 
HETATM   12  C8  CFF A 330       5.595 -34.231 -34.428  1.00148.06     0.184 A 
HETATM   13  C14 CFF A 330       5.963 -36.030 -36.107  1.00145.92     0.157 C 
ENDROOT
BRANCH   2  14
HETATM   14  O11 CFF A 330      10.874 -33.677 -32.337  1.00142.40    -0.332 OA
ATOM     15  H11 CFF A 330      10.806 -32.891 -31.809  1.00  0.00     0.221 HD
ENDBRANCH   2  14
BRANCH   4  16
HETATM   16  O13 CFF A 330       9.000 -36.492 -35.654  1.00147.52    -0.344 OA
ATOM     17  H13 CFF A 330       8.245 -36.952 -36.001  1.00  0.00     0.219 HD
ENDBRANCH   4  16
TORSDOF 2
ENDMDL
MODEL 5
REMARK VINA RESULT:      -4.8      2.956      5.376
REMARK  2 active torsions:
REMARK  status: ('A' for Active; 'I' for Inactive)
REMARK    1  A    between atoms: C2_2  and  O11_6 
REMARK    2  A    between atoms: C6_4  and  O13_13 
ROOT
HETATM    1  N1  CFF A 330       4.800 -32.897 -33.228  1.00147.73    -0.296 N 
HETATM    2  C2  CFF A 330       6.017 -32.503 -32.694  1.00148.15     0.228 A 
HETATM    3  C10 CFF A 330       3.543 -32.242 -32.810  1.00138.32     0.162 C 
HETATM    4  C6  CFF A 330       4.753 -33.929 -34.141  1.00147.40     0.176 A 
HETATM    5  N3  CFF A 330       7.183 -33.136 -33.072  1.00149.30    -0.301 N 
HETATM    6  C12 CFF A 330       8.466 -32.719 -32.494  1.00147.42     0.161 C 
HETATM    7  C4  CFF A 330       7.115 -34.152 -33.978  1.00146.85     0.143 A 
HETATM    8  C5  CFF A 330       5.941 -34.564 -34.514  1.00145.81     0.131 A 
HETATM    9  N9  CFF A 330       8.151 -34.875 -34.456  1.00147.23    -0.336 N 
ATOM     10  H9  CFF A 330       9.143 -34.794 -34.233  1.00  0.00     0.168 HD
HETATM   11  N7  CFF A 330       6.196 -35.574 -35.368  1.00147.22    -0.341 N 
HETATM   12  C8  CFF A 330       7.538 -35.736 -35.308  1.00148.06     0.184 A 
HETATM   13  C14 CFF A 330       5.304 -36.379 -36.195  1.00145.92     0.157 C 
ENDROOT
BRANCH   2  14
HETATM   14  O11 CFF A 330       6.067 -31.492 -31.790  1.00142.40    -0.332 OA
ATOM     15  H11 CFF A 330       6.682 -30.779 -31.918  1.00  0.00     0.221 HD
ENDBRANCH   2  14
BRANCH   4  16
HETATM   16  O13 CFF A 330       3.567 -34.316 -34.656  1.00147.52    -0.344 OA
ATOM     17  H13 CFF A 330       2.802 -33.756 -34.597  1.00  0.00     0.219 HD
ENDBRANCH   4  16
TORSDOF 2
ENDMDL
MODEL 6
REMARK VINA RESULT:      -4.8      1.858      2.918
REMARK  2 active torsions:
REMARK  status: ('A' for Active; 'I' for Inactive)
REMARK    1  A    between atoms: C2_2  and  O11_6 
REMARK    2  A    between atoms: C6_4  and  O13_13 
ROOT
HETATM    1  N1  CFF A 330       7.765 -34.853 -34.440  1.00147.73    -0.296 N 
HETATM    2  C2  CFF A 330       8.913 -35.564 -34.751  1.00148.15     0.228 A 
HETATM    3  C10 CFF A 330       6.531 -35.023 -35.236  1.00138.32     0.162 C 
HETATM    4  C6  CFF A 330       7.774 -33.958 -33.391  1.00147.40     0.176 A 
HETATM    5  N3  CFF A 330      10.067 -35.382 -34.017  1.00149.30    -0.301 N 
HETATM    6  C12 CFF A 330      11.282 -36.131 -34.361  1.00147.42     0.161 C 
HETATM    7  C4  CFF A 330      10.055 -34.494 -32.983  1.00146.85     0.143 A 
HETATM    8  C5  CFF A 330       8.950 -33.780 -32.657  1.00145.81     0.131 A 
HETATM    9  N9  CFF A 330      11.088 -34.195 -32.167  1.00147.23    -0.336 N 
ATOM     10  H9  CFF A 330      12.037 -34.569 -32.174  1.00  0.00     0.168 HD
HETATM   11  N7  CFF A 330       9.248 -32.998 -31.602  1.00147.22    -0.341 N 
HETATM   12  C8  CFF A 330      10.545 -33.273 -31.333  1.00148.06     0.184 A 
HETATM   13  C14 CFF A 330       8.438 -32.035 -30.864  1.00145.92     0.157 C 
ENDROOT
BRANCH   2  14
HETATM   14  O11 CFF A 330       8.910 -36.441 -35.787  1.00142.40    -0.332 OA
ATOM     15  H11 CFF A 330       8.529 -36.183 -36.618  1.00  0.00     0.221 HD
ENDBRANCH   2  14
BRANCH   4  16
HETATM   16  O13 CFF A 330       6.657 -33.262 -33.093  1.00147.52    -0.344 OA
ATOM     17  H13 CFF A 330       6.683 -32.533 -32.484  1.00  0.00     0.219 HD
ENDBRANCH   4  16
TORSDOF 2
ENDMDL
MODEL 7
REMARK VINA RESULT:      -4.8      2.702      4.306
REMARK  2 active torsions:
REMARK  status: ('A' for Active; 'I' for Inactive)
REMARK    1  A    between atoms: C2_2  and  O11_6 
REMARK    2  A    between atoms: C6_4  and  O13_13 
ROOT
HETATM    1  N1  CFF A 330       6.778 -35.108 -34.911  1.00147.73    -0.296 N 
HETATM    2  C2  CFF A 330       6.189 -34.115 -34.146  1.00148.15     0.228 A 
HETATM    3  C10 CFF A 330       5.960 -35.978 -35.781  1.00138.32     0.162 C 
HETATM    4  C6  CFF A 330       8.140 -35.309 -34.845  1.00147.40     0.176 A 
HETATM    5  N3  CFF A 330       6.957 -33.323 -33.318  1.00149.30    -0.301 N 
HETATM    6  C12 CFF A 330       6.323 -32.279 -32.503  1.00147.42     0.161 C 
HETATM    7  C4  CFF A 330       8.303 -33.535 -33.268  1.00146.85     0.143 A 
HETATM    8  C5  CFF A 330       8.908 -34.502 -34.000  1.00145.81     0.131 A 
HETATM    9  N9  CFF A 330       9.198 -32.857 -32.518  1.00147.23    -0.336 N 
ATOM     10  H9  CFF A 330       9.035 -32.085 -31.872  1.00  0.00     0.168 HD
HETATM   11  N7  CFF A 330      10.229 -34.465 -33.739  1.00147.22    -0.341 N 
HETATM   12  C8  CFF A 330      10.369 -33.463 -32.841  1.00148.06     0.184 A 
HETATM   13  C14 CFF A 330      11.328 -35.282 -34.242  1.00145.92     0.157 C 
ENDROOT
BRANCH   2  14
HETATM   14  O11 CFF A 330       4.847 -33.918 -34.203  1.00142.40    -0.332 OA
ATOM     15  H11 CFF A 330       4.484 -33.083 -33.932  1.00  0.00     0.221 HD
ENDBRANCH   2  14
BRANCH   4  16
HETATM   16  O13 CFF A 330       8.713 -36.281 -35.585  1.00147.52    -0.344 OA
ATOM     17  H13 CFF A 330       8.867 -36.161 -36.514  1.00  0.00     0.219 HD
ENDBRANCH   4  16
TORSDOF 2
ENDMDL
MODEL 8
REMARK VINA RESULT:      -4.8      2.983      5.855
REMARK  2 active torsions:
REMARK  status: ('A' for Active; 'I' for Inactive)
REMARK    1  A    between atoms: C2_2  and  O11_6 
REMARK    2  A    between atoms: C6_4  and  O13_13 
ROOT
HETATM    1  N1  CFF A 330       6.948 -32.569 -32.381  1.00147.73    -0.296 N 
HETATM    2  C2  CFF A 330       5.713 -32.064 -32.007  1.00148.15     0.228 A 
HETATM    3  C10 CFF A 330       8.185 -32.116 -31.711  1.00138.32     0.162 C 
HETATM    4  C6  CFF A 330       7.033 -33.488 -33.406  1.00147.40     0.176 A 
HETATM    5  N3  CFF A 330       4.566 -32.475 -32.654  1.00149.30    -0.301 N 
HETATM    6  C12 CFF A 330       3.262 -31.927 -32.258  1.00147.42     0.161 C 
HETATM    7  C4  CFF A 330       4.670 -33.386 -33.663  1.00146.85     0.143 A 
HETATM    8  C5  CFF A 330       5.864 -33.894 -34.055  1.00145.81     0.131 A 
HETATM    9  N9  CFF A 330       3.657 -33.894 -34.397  1.00147.23    -0.336 N 
ATOM     10  H9  CFF A 330       2.659 -33.695 -34.331  1.00  0.00     0.168 HD
HETATM   11  N7  CFF A 330       5.644 -34.761 -35.063  1.00147.22    -0.341 N 
HETATM   12  C8  CFF A 330       4.303 -34.735 -35.244  1.00148.06     0.184 A 
HETATM   13  C14 CFF A 330       6.568 -35.570 -35.850  1.00145.92     0.157 C 
ENDROOT
BRANCH   2  14
HETATM   14  O11 CFF A 330       5.626 -31.155 -31.003  1.00142.40    -0.332 OA
ATOM     15  H11 CFF A 330       5.456 -31.451 -30.117  1.00  0.00     0.221 HD
ENDBRANCH   2  14
BRANCH   4  16
HETATM   16  O13 CFF A 330       8.236 -33.974 -33.773  1.00147.52    -0.344 OA
ATOM     17  H13 CFF A 330       8.844 -33.447 -34.277  1.00  0.00     0.219 HD
ENDBRANCH   4  16
TORSDOF 2
ENDMDL
MODEL 9
REMARK VINA RESULT:      -4.8      2.575      4.694
REMARK  2 active torsions:
REMARK  status: ('A' for Active; 'I' for Inactive)
REMARK    1  A    between atoms: C2_2  and  O11_6 
REMARK    2  A    between atoms: C6_4  and  O13_13 
ROOT
HETATM    1  N1  CFF A 330       8.472 -33.371 -32.355  1.00147.73    -0.296 N 
HETATM    2  C2  CFF A 330       9.239 -34.511 -32.532  1.00148.15     0.228 A 
HETATM    3  C10 CFF A 330       8.881 -32.327 -31.391  1.00138.32     0.162 C 
HETATM    4  C6  CFF A 330       7.300 -33.213 -33.064  1.00147.40     0.176 A 
HETATM    5  N3  CFF A 330       8.837 -35.491 -33.416  1.00149.30    -0.301 N 
HETATM    6  C12 CFF A 330       9.650 -36.702 -33.591  1.00147.42     0.161 C 
HETATM    7  C4  CFF A 330       7.677 -35.316 -34.110  1.00146.85     0.143 A 
HETATM    8  C5  CFF A 330       6.902 -34.215 -33.954  1.00145.81     0.131 A 
HETATM    9  N9  CFF A 330       7.139 -36.168 -35.009  1.00147.23    -0.336 N 
ATOM     10  H9  CFF A 330       7.494 -37.071 -35.324  1.00  0.00     0.168 HD
HETATM   11  N7  CFF A 330       5.835 -34.330 -34.767  1.00147.22    -0.341 N 
HETATM   12  C8  CFF A 330       6.009 -35.520 -35.387  1.00148.06     0.184 A 
HETATM   13  C14 CFF A 330       4.696 -33.444 -34.985  1.00145.92     0.157 C 
ENDROOT
BRANCH   2  14
HETATM   14  O11 CFF A 330      10.389 -34.673 -31.832  1.00142.40    -0.332 OA
ATOM     15  H11 CFF A 330      10.875 -33.908 -31.545  1.00  0.00     0.221 HD
ENDBRANCH   2  14
BRANCH   4  16
HETATM   16  O13 CFF A 330       6.551 -32.105 -32.885  1.00147.52    -0.344 OA
ATOM     17  H13 CFF A 330       6.668 -31.554 -32.121  1.00  0.00     0.219 HD
ENDBRANCH   4  16
TORSDOF 2
ENDMDL
