MODEL        1
REMARK  Name = 
REMARK  6 active torsions:
REMARK  status: ('A' for Active; 'I' for Inactive)
REMARK    1  A    between atoms: C_1  and  C_2
REMARK    2  A    between atoms: C_2  and  O_3
REMARK    3  A    between atoms: C_2  and  C_4
REMARK    4  A    between atoms: C_4  and  N_5
REMARK    5  A    between atoms: N_12  and  C_13
REMARK    6  A    between atoms: N_14  and  C_15
REMARK                            x       y       z     vdW  Elec       q    Type
REMARK                         _______ _______ _______ _____ _____    ______ ____
ROOT
ATOM      5  N   UNL     1      -0.916  -0.221  -0.605  0.00  0.00    +0.000 N 
ATOM      6  C   UNL     1       0.102  -0.968  -0.170  0.00  0.00    +0.000 A 
ATOM      7  O   UNL     1      -0.094  -2.192   0.027  0.00  0.00    +0.000 OA
ATOM      8  C   UNL     1       1.294  -0.349   0.125  0.00  0.00    +0.000 A 
ATOM      9  C   UNL     1       1.466   1.010  -0.055  0.00  0.00    +0.000 A 
ATOM     10  N   UNL     1       2.630   1.312   0.553  0.00  0.00    +0.000 NA
ATOM     11  C   UNL     1       3.213   0.147   0.924  0.00  0.00    +0.000 A 
ATOM     12  N   UNL     1       2.534  -0.841   0.318  0.00  0.00    +0.000 N 
ATOM     13  C   UNL     1       2.851  -2.242   0.471  0.00  0.00    +0.000 C 
ATOM     14  N   UNL     1       0.368   1.745  -0.331  0.00  0.00    +0.000 N 
ATOM     15  C   UNL     1       0.312   3.144   0.057  0.00  0.00    +0.000 C 
ATOM     16  C   UNL     1      -0.726   1.108  -0.788  0.00  0.00    +0.000 A 
ATOM     17  O   UNL     1      -1.504   1.782  -1.525  0.00  0.00    +0.000 OA
ENDROOT
BRANCH   5   4
ATOM      4  C   UNL     1      -2.213  -0.730  -0.973  0.00  0.00    +0.000 C 
BRANCH   4   2
ATOM      1  C   UNL     1      -2.389  -0.178   1.371  0.00  0.00    +0.000 C 
ATOM      2  C   UNL     1      -2.743  -1.517   0.416  0.00  0.00    +0.000 C 
BRANCH   2   3
ATOM      3  O   UNL     1      -4.187  -1.011   0.185  0.00  0.00    +0.000 OA
ATOM     18  H   UNL     1      -4.168  -0.067  -0.036  0.00  0.00    +0.000 HD
ENDBRANCH   2   3
ENDBRANCH   4   2
ENDBRANCH   5   4
TORSDOF 3
ENDMDL
MODEL        2
REMARK  Name = 
REMARK  7 active torsions:
REMARK  status: ('A' for Active; 'I' for Inactive)
REMARK    1  A    between atoms: C_1  and  C_2
REMARK    2  A    between atoms: C_2  and  C_3
REMARK    3  A    between atoms: C_3  and  C_4
REMARK    4  A    between atoms: C_3  and  C_5
REMARK    5  A    between atoms: C_5  and  N_6
REMARK    6  A    between atoms: C_9  and  C_10
REMARK    7  A    between atoms: N_15  and  C_16
REMARK                            x       y       z     vdW  Elec       q    Type
REMARK                         _______ _______ _______ _____ _____    ______ ____
ROOT
ATOM      6  N   UNL     1       0.479  -0.245  -0.397  0.00  0.00    +0.000 N 
ATOM      7  C   UNL     1      -0.496   0.625  -0.093  0.00  0.00    +0.000 A 
ATOM      8  N   UNL     1      -0.568   1.951  -0.227  0.00  0.00    +0.000 NA
ATOM      9  C   UNL     1      -1.846   2.297   0.046  0.00  0.00    +0.000 A 
ATOM     10  C   UNL     1      -2.283   3.714   0.104  0.00  0.00    +0.000 C 
ATOM     11  N   UNL     1      -2.612   1.186   0.063  0.00  0.00    +0.000 N 
ATOM     12  C   UNL     1      -1.791   0.129  -0.084  0.00  0.00    +0.000 A 
ATOM     13  C   UNL     1      -2.056  -1.228  -0.163  0.00  0.00    +0.000 A 
ATOM     14  O   UNL     1      -3.204  -1.629   0.117  0.00  0.00    +0.000 OA
ATOM     15  N   UNL     1      -0.976  -2.043  -0.248  0.00  0.00    +0.000 N 
ATOM     16  C   UNL     1      -1.274  -3.419  -0.637  0.00  0.00    +0.000 C 
ATOM     17  C   UNL     1       0.286  -1.558  -0.248  0.00  0.00    +0.000 A 
ATOM     18  O   UNL     1       1.203  -2.380  -0.471  0.00  0.00    +0.000 OA
ATOM     19  H   UNL     1      -3.591   1.154   0.165  0.00  0.00    +0.000 HD
ENDROOT
BRANCH   6   5
ATOM      5  C   UNL     1       1.744   0.243  -0.940  0.00  0.00    +0.000 C 
BRANCH   5   3
ATOM      3  C   UNL     1       2.836  -0.221   0.215  0.00  0.00    +0.000 C 
ATOM      4  C   UNL     1       2.001   0.575   1.403  0.00  0.00    +0.000 C 
BRANCH   3   2
ATOM      1  C   UNL     1       4.770   0.900   0.329  0.00  0.00    +0.000 C 
ATOM      2  C   UNL     1       3.786   1.103  -0.080  0.00  0.00    +0.000 C 
ENDBRANCH   3   2
ENDBRANCH   5   3
ENDBRANCH   6   5
TORSDOF 3
ENDMDL
MODEL        3
REMARK  Name = 
REMARK  4 active torsions:
REMARK  status: ('A' for Active; 'I' for Inactive)
REMARK    1  A    between atoms: C_1  and  N_2
REMARK    2  A    between atoms: N_6  and  C_7
REMARK    3  A    between atoms: C_7  and  C_8
REMARK    4  A    between atoms: N_13  and  C_14
REMARK                            x       y       z     vdW  Elec       q    Type
REMARK                         _______ _______ _______ _____ _____    ______ ____
ROOT
ATOM      1  C   UNL     1      -2.435   2.491   0.359  0.00  0.00    +0.000 C 
ATOM      2  N   UNL     1      -1.796   1.229   0.019  0.00  0.00    +0.000 N 
ATOM      3  C   UNL     1      -0.552   1.227  -0.475  0.00  0.00    +0.000 A 
ATOM      4  N   UNL     1       0.205   2.140  -1.113  0.00  0.00    +0.000 NA
ATOM      5  C   UNL     1       1.406   1.581  -1.374  0.00  0.00    +0.000 A 
ATOM      6  N   UNL     1       1.591   0.552  -0.514  0.00  0.00    +0.000 N 
ATOM     10  C   UNL     1       0.340   0.226  -0.112  0.00  0.00    +0.000 A 
ATOM     11  C   UNL     1      -0.214  -0.944   0.396  0.00  0.00    +0.000 A 
ATOM     12  O   UNL     1       0.547  -1.769   0.978  0.00  0.00    +0.000 OA
ATOM     13  N   UNL     1      -1.564  -1.038   0.489  0.00  0.00    +0.000 N 
ATOM     14  C   UNL     1      -2.130  -2.358   0.691  0.00  0.00    +0.000 C 
ATOM     15  C   UNL     1      -2.354   0.052   0.332  0.00  0.00    +0.000 A 
ATOM     16  O   UNL     1      -3.573  -0.008   0.668  0.00  0.00    +0.000 OA
ENDROOT
BRANCH   6   7
ATOM      7  C   UNL     1       2.585  -0.484  -0.784  0.00  0.00    +0.000 C 
BRANCH   7   8
ATOM      8  C   UNL     1       3.426  -0.782   0.428  0.00  0.00    +0.000 C 
ATOM      9 CL   UNL     1       4.517  -2.114   0.013  0.00  0.00    +0.000 Cl
ENDBRANCH   7   8
ENDBRANCH   6   7
TORSDOF 2
ENDMDL
MODEL        4
REMARK  Name = 
REMARK  7 active torsions:
REMARK  status: ('A' for Active; 'I' for Inactive)
REMARK    1  A    between atoms: C_1  and  N_2
REMARK    2  A    between atoms: N_2  and  C_3
REMARK    3  A    between atoms: C_3  and  C_4
REMARK    4  A    between atoms: C_4  and  O_5
REMARK    5  A    between atoms: N_12  and  C_13
REMARK    6  A    between atoms: N_16  and  C_17
REMARK    7  A    between atoms: N_18  and  C_19
REMARK                            x       y       z     vdW  Elec       q    Type
REMARK                         _______ _______ _______ _____ _____    ______ ____
ROOT
ATOM      1  C   UNL     1      -3.326  -2.264  -0.734  0.00  0.00    +0.000 C 
ATOM      2  N   UNL     1      -2.746  -1.132  -0.018  0.00  0.00    +0.000 N 
ATOM      6  C   UNL     1      -1.445  -0.669  -0.398  0.00  0.00    +0.000 A 
ATOM      7  N   UNL     1      -1.033   0.609  -0.210  0.00  0.00    +0.000 NA
ATOM      8  C   UNL     1       0.319   0.647  -0.140  0.00  0.00    +0.000 A 
ATOM      9  C   UNL     1       0.737  -0.676  -0.235  0.00  0.00    +0.000 A 
ATOM     10  C   UNL     1       2.096  -0.924  -0.131  0.00  0.00    +0.000 A 
ATOM     11  O   UNL     1       2.474  -2.065   0.199  0.00  0.00    +0.000 OA
ATOM     12  N   UNL     1       2.906   0.163  -0.131  0.00  0.00    +0.000 N 
ATOM     13  C   UNL     1       4.339  -0.104  -0.227  0.00  0.00    +0.000 C 
ATOM     14  C   UNL     1       2.447   1.413   0.113  0.00  0.00    +0.000 A 
ATOM     15  O   UNL     1       3.255   2.345   0.406  0.00  0.00    +0.000 OA
ATOM     16  N   UNL     1       1.130   1.607   0.368  0.00  0.00    +0.000 N 
ATOM     17  C   UNL     1       0.681   2.547   1.391  0.00  0.00    +0.000 C 
ATOM     18  N   UNL     1      -0.342  -1.444  -0.523  0.00  0.00    +0.000 N 
ATOM     19  C   UNL     1      -0.322  -2.903  -0.475  0.00  0.00    +0.000 C 
ENDROOT
BRANCH   2   3
ATOM      3  C   UNL     1      -3.717  -0.257   0.633  0.00  0.00    +0.000 C 
BRANCH   3   4
ATOM      4  C   UNL     1      -3.890   0.972  -0.209  0.00  0.00    +0.000 C 
BRANCH   4   5
ATOM      5  O   UNL     1      -3.563   2.135   0.486  0.00  0.00    +0.000 OA
ATOM     20  H   UNL     1      -4.149   2.230   1.252  0.00  0.00    +0.000 HD
ENDBRANCH   4   5
ENDBRANCH   3   4
ENDBRANCH   2   3
TORSDOF 3
ENDMDL
MODEL        5
REMARK  Name = 
REMARK  3 active torsions:
REMARK  status: ('A' for Active; 'I' for Inactive)
REMARK    1  A    between atoms: C_1  and  N_2
REMARK    2  A    between atoms: N_9  and  C_10
REMARK    3  A    between atoms: N_13  and  C_14
REMARK                            x       y       z     vdW  Elec       q    Type
REMARK                         _______ _______ _______ _____ _____    ______ ____
ROOT
ATOM      1  C   UNL     1       3.144  -0.949   0.265  0.00  0.00    +0.000 C 
ATOM      2  N   UNL     1       2.175   0.092   0.028  0.00  0.00    +0.000 N 
ATOM      3  C   UNL     1       2.380   1.403   0.283  0.00  0.00    +0.000 A 
ATOM      4  N   UNL     1       1.223   2.007  -0.086  0.00  0.00    +0.000 NA
ATOM      5  C   UNL     1       0.239   1.116  -0.194  0.00  0.00    +0.000 A 
ATOM      6  C   UNL     1       0.881  -0.108  -0.323  0.00  0.00    +0.000 A 
ATOM      7  C   UNL     1       0.065  -1.230  -0.412  0.00  0.00    +0.000 A 
ATOM      8  O   UNL     1       0.647  -2.321  -0.634  0.00  0.00    +0.000 OA
ATOM      9  N   UNL     1      -1.226  -1.210   0.006  0.00  0.00    +0.000 N 
ATOM     10  C   UNL     1      -1.872  -2.421   0.509  0.00  0.00    +0.000 C 
ATOM     11  C   UNL     1      -1.801   0.000   0.175  0.00  0.00    +0.000 A 
ATOM     12  O   UNL     1      -2.969   0.110   0.657  0.00  0.00    +0.000 OA
ATOM     13  N   UNL     1      -1.106   1.109  -0.172  0.00  0.00    +0.000 N 
ATOM     14  C   UNL     1      -1.780   2.402  -0.103  0.00  0.00    +0.000 C 
ENDROOT
TORSDOF 0
ENDMDL
MODEL        6
REMARK  Name = 
REMARK  9 active torsions:
REMARK  status: ('A' for Active; 'I' for Inactive)
REMARK    1  A    between atoms: C_1  and  C_2
REMARK    2  A    between atoms: C_2  and  N_3
REMARK    3  A    between atoms: N_3  and  C_4
REMARK    4  A    between atoms: N_3  and  C_6
REMARK    5  A    between atoms: C_4  and  C_5
REMARK    6  A    between atoms: C_6  and  C_7
REMARK    7  A    between atoms: C_7  and  N_8
REMARK    8  A    between atoms: N_15  and  C_16
REMARK    9  A    between atoms: N_19  and  C_20
REMARK                            x       y       z     vdW  Elec       q    Type
REMARK                         _______ _______ _______ _____ _____    ______ ____
ROOT
ATOM      8  N   UNL     1       0.345   0.550  -0.620  0.00  0.00    +0.000 N 
ATOM      9  C   UNL     1       0.159   1.885  -0.500  0.00  0.00    +0.000 A 
ATOM     10  N   UNL     1      -1.131   2.108  -0.843  0.00  0.00    +0.000 NA
ATOM     11  C   UNL     1      -1.819   0.966  -0.716  0.00  0.00    +0.000 A 
ATOM     12  C   UNL     1      -0.871  -0.048  -0.641  0.00  0.00    +0.000 A 
ATOM     13  C   UNL     1      -1.233  -1.335  -0.266  0.00  0.00    +0.000 A 
ATOM     14  O   UNL     1      -0.347  -2.097   0.222  0.00  0.00    +0.000 OA
ATOM     15  N   UNL     1      -2.519  -1.573   0.081  0.00  0.00    +0.000 N 
ATOM     16  C   UNL     1      -2.856  -2.723   0.916  0.00  0.00    +0.000 C 
ATOM     17  C   UNL     1      -3.422  -0.610  -0.203  0.00  0.00    +0.000 A 
ATOM     18  O   UNL     1      -4.622  -0.876   0.007  0.00  0.00    +0.000 OA
ATOM     19  N   UNL     1      -3.076   0.692  -0.333  0.00  0.00    +0.000 N 
ATOM     20  C   UNL     1      -4.000   1.770  -0.024  0.00  0.00    +0.000 C 
ENDROOT
BRANCH   8   7
ATOM      7  C   UNL     1       1.585  -0.169  -0.897  0.00  0.00    +0.000 C 
BRANCH   7   6
ATOM      6  C   UNL     1       2.730   0.790  -0.937  0.00  0.00    +0.000 C 
BRANCH   6   3
ATOM      3  N   UNL     1       3.901   0.406  -0.256  0.00  0.00    +0.000 NA
BRANCH   3   2
ATOM      1  C   UNL     1       3.539  -2.023  -0.498  0.00  0.00    +0.000 C 
ATOM      2  C   UNL     1       4.472  -0.850  -0.543  0.00  0.00    +0.000 C 
ENDBRANCH   3   2
BRANCH   3   4
ATOM      4  C   UNL     1       4.132   0.960   1.028  0.00  0.00    +0.000 C 
ATOM      5  C   UNL     1       5.035   2.178   0.868  0.00  0.00    +0.000 C 
ENDBRANCH   3   4
ENDBRANCH   6   3
ENDBRANCH   7   6
ENDBRANCH   8   7
TORSDOF 5
ENDMDL
MODEL        7
REMARK  Name = 
REMARK  2 active torsions:
REMARK  status: ('A' for Active; 'I' for Inactive)
REMARK    1  A    between atoms: C_1  and  N_2
REMARK    2  A    between atoms: N_12  and  C_13
REMARK                            x       y       z     vdW  Elec       q    Type
REMARK                         _______ _______ _______ _____ _____    ______ ____
ROOT
ATOM      1  C   UNL     1      -3.103  -0.955   0.185  0.00  0.00    +0.000 C 
ATOM      2  N   UNL     1      -2.033  -0.013  -0.126  0.00  0.00    +0.000 N 
ATOM      3  C   UNL     1      -2.165   1.325  -0.117  0.00  0.00    +0.000 A 
ATOM      4  N   UNL     1      -0.962   1.880  -0.391  0.00  0.00    +0.000 NA
ATOM      5  C   UNL     1      -0.027   0.915  -0.290  0.00  0.00    +0.000 A 
ATOM      6  C   UNL     1      -0.708  -0.256   0.019  0.00  0.00    +0.000 A 
ATOM      7  C   UNL     1      -0.037  -1.447  -0.230  0.00  0.00    +0.000 A 
ATOM      8  O   UNL     1      -0.697  -2.510  -0.437  0.00  0.00    +0.000 OA
ATOM      9  N   UNL     1       1.246  -1.382  -0.636  0.00  0.00    +0.000 N 
ATOM     10  C   UNL     1       1.982  -0.263  -0.490  0.00  0.00    +0.000 A 
ATOM     11  O   UNL     1       3.200  -0.296  -0.209  0.00  0.00    +0.000 OA
ATOM     12  N   UNL     1       1.319   0.901  -0.314  0.00  0.00    +0.000 N 
ATOM     13  C   UNL     1       1.985   2.101  -0.815  0.00  0.00    +0.000 C 
ATOM     14  H   UNL     1       1.657  -2.175  -1.050  0.00  0.00    +0.000 HD
ENDROOT
TORSDOF 0
ENDMDL
MODEL        8
REMARK  Name = 
REMARK  6 active torsions:
REMARK  status: ('A' for Active; 'I' for Inactive)
REMARK    1  A    between atoms: C_1  and  C_2
REMARK    2  A    between atoms: C_2  and  C_3
REMARK    3  A    between atoms: C_2  and  C_4
REMARK    4  A    between atoms: C_4  and  N_5
REMARK    5  A    between atoms: N_12  and  C_13
REMARK    6  A    between atoms: N_16  and  C_17
REMARK                            x       y       z     vdW  Elec       q    Type
REMARK                         _______ _______ _______ _____ _____    ______ ____
ROOT
ATOM      5  N   UNL     1       1.283  -0.408  -0.333  0.00  0.00    +0.000 N 
ATOM      6  C   UNL     1       1.275  -1.706  -0.634  0.00  0.00    +0.000 A 
ATOM      7  N   UNL     1       0.002  -2.171  -0.606  0.00  0.00    +0.000 NA
ATOM      8  C   UNL     1      -0.836  -1.149  -0.309  0.00  0.00    +0.000 A 
ATOM      9  C   UNL     1      -0.018  -0.027  -0.363  0.00  0.00    +0.000 A 
ATOM     10  C   UNL     1      -0.670   1.196  -0.386  0.00  0.00    +0.000 A 
ATOM     11  O   UNL     1       0.043   2.241  -0.457  0.00  0.00    +0.000 OA
ATOM     12  N   UNL     1      -1.999   1.258  -0.132  0.00  0.00    +0.000 N 
ATOM     13  C   UNL     1      -2.463   2.530   0.418  0.00  0.00    +0.000 C 
ATOM     14  C   UNL     1      -2.643   0.151   0.310  0.00  0.00    +0.000 A 
ATOM     15  O   UNL     1      -3.623   0.218   1.112  0.00  0.00    +0.000 OA
ATOM     16  N   UNL     1      -2.178  -1.032  -0.158  0.00  0.00    +0.000 N 
ATOM     17  C   UNL     1      -2.882  -2.223   0.306  0.00  0.00    +0.000 C 
ENDROOT
BRANCH   5   4
ATOM      4  C   UNL     1       2.283   0.426   0.294  0.00  0.00    +0.000 C 
BRANCH   4   2
ATOM      1  C   UNL     1       4.426   0.797  -0.780  0.00  0.00    +0.000 C 
ATOM      2  C   UNL     1       3.674  -0.125   0.174  0.00  0.00    +0.000 C 
ATOM      3  C   UNL     1       4.326   0.024   1.545  0.00  0.00    +0.000 C 
ENDBRANCH   4   2
ENDBRANCH   5   4
TORSDOF 2
ENDMDL
MODEL        9
REMARK  Name = 
REMARK  7 active torsions:
REMARK  status: ('A' for Active; 'I' for Inactive)
REMARK    1  A    between atoms: C_1  and  N_2
REMARK    2  A    between atoms: N_6  and  C_7
REMARK    3  A    between atoms: C_7  and  C_8
REMARK    4  A    between atoms: C_8  and  O_9
REMARK    5  A    between atoms: C_8  and  C_10
REMARK    6  A    between atoms: C_10  and  O_11
REMARK    7  A    between atoms: N_15  and  C_16
REMARK                            x       y       z     vdW  Elec       q    Type
REMARK                         _______ _______ _______ _____ _____    ______ ____
ROOT
ATOM      1  C   UNL     1      -3.509  -1.627   0.469  0.00  0.00    +0.000 C 
ATOM      2  N   UNL     1      -2.433  -0.683   0.367  0.00  0.00    +0.000 N 
ATOM      3  C   UNL     1      -1.160  -1.116   0.221  0.00  0.00    +0.000 A 
ATOM      4  N   UNL     1      -0.644  -2.290  -0.139  0.00  0.00    +0.000 NA
ATOM      5  C   UNL     1       0.686  -2.158  -0.307  0.00  0.00    +0.000 A 
ATOM      6  N   UNL     1       0.890  -0.865  -0.558  0.00  0.00    +0.000 N 
ATOM     12  C   UNL     1      -0.156  -0.188  -0.036  0.00  0.00    +0.000 A 
ATOM     13  C   UNL     1      -0.448   1.156  -0.109  0.00  0.00    +0.000 A 
ATOM     14  O   UNL     1       0.427   1.975  -0.480  0.00  0.00    +0.000 OA
ATOM     15  N   UNL     1      -1.732   1.534   0.073  0.00  0.00    +0.000 N 
ATOM     16  C   UNL     1      -2.091   2.940  -0.090  0.00  0.00    +0.000 C 
ATOM     17  C   UNL     1      -2.731   0.633   0.254  0.00  0.00    +0.000 A 
ATOM     18  O   UNL     1      -3.900   1.081   0.318  0.00  0.00    +0.000 OA
ENDROOT
BRANCH   6   7
ATOM      7  C   UNL     1       2.090  -0.318  -1.187  0.00  0.00    +0.000 C 
BRANCH   7   8
ATOM      8  C   UNL     1       3.246  -1.060  -0.215  0.00  0.00    +0.000 C 
BRANCH   8   9
ATOM      9  O   UNL     1       2.993  -0.054   0.934  0.00  0.00    +0.000 OA
ATOM     19  H   UNL     1       2.968   0.847   0.575  0.00  0.00    +0.000 HD
ENDBRANCH   8   9
BRANCH   8  10
ATOM     10  C   UNL     1       4.489  -0.116  -0.840  0.00  0.00    +0.000 C 
BRANCH  10  11
ATOM     11  O   UNL     1       3.983   1.157  -0.880  0.00  0.00    +0.000 OA
ATOM     20  H   UNL     1       3.182   1.169  -1.427  0.00  0.00    +0.000 HD
ENDBRANCH  10  11
ENDBRANCH   8  10
ENDBRANCH   7   8
ENDBRANCH   6   7
TORSDOF 5
ENDMDL
MODEL       10
REMARK  Name = 
REMARK  7 active torsions:
REMARK  status: ('A' for Active; 'I' for Inactive)
REMARK    1  A    between atoms: C_1  and  N_2
REMARK    2  A    between atoms: N_6  and  C_7
REMARK    3  A    between atoms: C_7  and  C_8
REMARK    4  A    between atoms: C_8  and  O_9
REMARK    5  A    between atoms: C_8  and  C_10
REMARK    6  A    between atoms: C_10  and  O_11
REMARK    7  A    between atoms: N_15  and  C_16
REMARK                            x       y       z     vdW  Elec       q    Type
REMARK                         _______ _______ _______ _____ _____    ______ ____
ROOT
ATOM      1  C   UNL     1      -3.353   1.997  -0.248  0.00  0.00    +0.000 C 
ATOM      2  N   UNL     1      -2.393   0.943  -0.169  0.00  0.00    +0.000 N 
ATOM      3  C   UNL     1      -1.106   1.202  -0.444  0.00  0.00    +0.000 A 
ATOM      4  N   UNL     1      -0.453   2.150  -1.116  0.00  0.00    +0.000 NA
ATOM      5  C   UNL     1       0.795   1.731  -1.319  0.00  0.00    +0.000 A 
ATOM      6  N   UNL     1       1.048   0.602  -0.611  0.00  0.00    +0.000 N 
ATOM     12  C   UNL     1      -0.184   0.193  -0.218  0.00  0.00    +0.000 A 
ATOM     13  C   UNL     1      -0.523  -0.898   0.560  0.00  0.00    +0.000 A 
ATOM     14  O   UNL     1       0.244  -1.379   1.436  0.00  0.00    +0.000 OA
ATOM     15  N   UNL     1      -1.844  -1.170   0.630  0.00  0.00    +0.000 N 
ATOM     16  C   UNL     1      -2.276  -2.403   1.282  0.00  0.00    +0.000 C 
ATOM     17  C   UNL     1      -2.758  -0.317   0.123  0.00  0.00    +0.000 A 
ATOM     18  O   UNL     1      -3.973  -0.603   0.067  0.00  0.00    +0.000 OA
ENDROOT
BRANCH   6   7
ATOM      7  C   UNL     1       2.274   0.462   0.175  0.00  0.00    +0.000 C 
BRANCH   7   8
ATOM      8  C   UNL     1       2.806  -1.068  -0.196  0.00  0.00    +0.000 C 
BRANCH   8   9
ATOM      9  O   UNL     1       3.063  -0.673  -1.651  0.00  0.00    +0.000 OA
ATOM     19  H   UNL     1       3.533   0.175  -1.678  0.00  0.00    +0.000 HD
ENDBRANCH   8   9
BRANCH   8  10
ATOM     10  C   UNL     1       4.370  -0.700   0.236  0.00  0.00    +0.000 C 
BRANCH  10  11
ATOM     11  O   UNL     1       4.261  -0.070   1.463  0.00  0.00    +0.000 OA
ATOM     20  H   UNL     1       3.692   0.710   1.376  0.00  0.00    +0.000 HD
ENDBRANCH  10  11
ENDBRANCH   8  10
ENDBRANCH   7   8
ENDBRANCH   6   7
TORSDOF 5
ENDMDL
MODEL       11
REMARK  Name = 
REMARK  6 active torsions:
REMARK  status: ('A' for Active; 'I' for Inactive)
REMARK    1  A    between atoms: C_1  and  C_2
REMARK    2  A    between atoms: C_2  and  O_3
REMARK    3  A    between atoms: C_2  and  C_4
REMARK    4  A    between atoms: C_4  and  N_5
REMARK    5  A    between atoms: N_12  and  C_13
REMARK    6  A    between atoms: N_16  and  C_17
REMARK                            x       y       z     vdW  Elec       q    Type
REMARK                         _______ _______ _______ _____ _____    ______ ____
ROOT
ATOM      5  N   UNL     1       1.328   0.343  -0.325  0.00  0.00    +0.000 N 
ATOM      6  C   UNL     1       1.321   1.411  -1.161  0.00  0.00    +0.000 A 
ATOM      7  N   UNL     1       0.095   1.970  -1.203  0.00  0.00    +0.000 NA
ATOM      8  C   UNL     1      -0.753   1.171  -0.540  0.00  0.00    +0.000 A 
ATOM      9  C   UNL     1       0.073   0.325   0.188  0.00  0.00    +0.000 A 
ATOM     10  C   UNL     1      -0.555  -0.523   1.091  0.00  0.00    +0.000 A 
ATOM     11  O   UNL     1       0.218  -1.130   1.867  0.00  0.00    +0.000 OA
ATOM     12  N   UNL     1      -1.894  -0.743   1.045  0.00  0.00    +0.000 N 
ATOM     13  C   UNL     1      -2.340  -2.035   1.561  0.00  0.00    +0.000 C 
ATOM     14  C   UNL     1      -2.589  -0.107   0.068  0.00  0.00    +0.000 A 
ATOM     15  O   UNL     1      -3.606  -0.674  -0.439  0.00  0.00    +0.000 OA
ATOM     16  N   UNL     1      -2.101   1.059  -0.424  0.00  0.00    +0.000 N 
ATOM     17  C   UNL     1      -2.920   1.725  -1.419  0.00  0.00    +0.000 C 
ENDROOT
BRANCH   5   4
ATOM      4  C   UNL     1       2.113  -0.885  -0.473  0.00  0.00    +0.000 C 
BRANCH   4   2
ATOM      1  C   UNL     1       4.321  -1.759  -0.193  0.00  0.00    +0.000 C 
ATOM      2  C   UNL     1       3.661  -0.273  -0.564  0.00  0.00    +0.000 C 
BRANCH   2   3
ATOM      3  O   UNL     1       3.626   0.125   0.918  0.00  0.00    +0.000 OA
ATOM     18  H   UNL     1       3.268  -0.609   1.442  0.00  0.00    +0.000 HD
ENDBRANCH   2   3
ENDBRANCH   4   2
ENDBRANCH   5   4
TORSDOF 3
ENDMDL
MODEL       12
REMARK  Name = 
REMARK  6 active torsions:
REMARK  status: ('A' for Active; 'I' for Inactive)
REMARK    1  A    between atoms: C_1  and  C_2
REMARK    2  A    between atoms: C_2  and  O_3
REMARK    3  A    between atoms: C_2  and  C_4
REMARK    4  A    between atoms: C_4  and  N_5
REMARK    5  A    between atoms: N_12  and  C_13
REMARK    6  A    between atoms: N_16  and  C_17
REMARK                            x       y       z     vdW  Elec       q    Type
REMARK                         _______ _______ _______ _____ _____    ______ ____
ROOT
ATOM      5  N   UNL     1       1.331  -0.645   0.961  0.00  0.00    +0.000 N 
ATOM      6  C   UNL     1       1.512   0.285   1.910  0.00  0.00    +0.000 A 
ATOM      7  N   UNL     1       0.487   1.170   1.926  0.00  0.00    +0.000 NA
ATOM      8  C   UNL     1      -0.391   0.800   0.961  0.00  0.00    +0.000 A 
ATOM      9  C   UNL     1       0.053  -0.446   0.553  0.00  0.00    +0.000 A 
ATOM     10  C   UNL     1      -0.846  -1.192  -0.190  0.00  0.00    +0.000 A 
ATOM     11  O   UNL     1      -0.520  -2.354  -0.480  0.00  0.00    +0.000 OA
ATOM     12  N   UNL     1      -2.012  -0.645  -0.555  0.00  0.00    +0.000 N 
ATOM     13  C   UNL     1      -3.054  -1.463  -1.139  0.00  0.00    +0.000 C 
ATOM     14  C   UNL     1      -2.091   0.689  -0.563  0.00  0.00    +0.000 A 
ATOM     15  O   UNL     1      -2.897   1.281  -1.307  0.00  0.00    +0.000 OA
ATOM     16  N   UNL     1      -1.387   1.452   0.310  0.00  0.00    +0.000 N 
ATOM     17  C   UNL     1      -1.422   2.891   0.295  0.00  0.00    +0.000 C 
ENDROOT
BRANCH   5   4
ATOM      4  C   UNL     1       2.237  -1.422   0.181  0.00  0.00    +0.000 C 
BRANCH   4   2
ATOM      1  C   UNL     1       3.159  -0.852  -1.954  0.00  0.00    +0.000 C 
ATOM      2  C   UNL     1       3.417  -0.361  -0.367  0.00  0.00    +0.000 C 
BRANCH   2   3
ATOM      3  O   UNL     1       2.423   0.813  -0.541  0.00  0.00    +0.000 OA
ATOM     18  H   UNL     1       1.622   0.496  -0.986  0.00  0.00    +0.000 HD
ENDBRANCH   2   3
ENDBRANCH   4   2
ENDBRANCH   5   4
TORSDOF 3
ENDMDL
MODEL       13
REMARK  Name = 
REMARK  5 active torsions:
REMARK  status: ('A' for Active; 'I' for Inactive)
REMARK    1  A    between atoms: C_1  and  N_2
REMARK    2  A    between atoms: N_6  and  C_7
REMARK    3  A    between atoms: C_7  and  C_8
REMARK    4  A    between atoms: C_8  and  O_9
REMARK    5  A    between atoms: N_13  and  C_14
REMARK                            x       y       z     vdW  Elec       q    Type
REMARK                         _______ _______ _______ _____ _____    ______ ____
ROOT
ATOM      1  C   UNL     1      -2.485  -2.313   0.016  0.00  0.00    +0.000 C 
ATOM      2  N   UNL     1      -1.720  -1.075   0.102  0.00  0.00    +0.000 N 
ATOM      3  C   UNL     1      -0.424  -1.082  -0.292  0.00  0.00    +0.000 A 
ATOM      4  N   UNL     1       0.516  -2.039  -0.397  0.00  0.00    +0.000 NA
ATOM      5  C   UNL     1       1.753  -1.484  -0.420  0.00  0.00    +0.000 A 
ATOM      6  N   UNL     1       1.598  -0.138  -0.448  0.00  0.00    +0.000 N 
ATOM     10  C   UNL     1       0.270   0.111  -0.448  0.00  0.00    +0.000 A 
ATOM     11  C   UNL     1      -0.515   1.257  -0.480  0.00  0.00    +0.000 A 
ATOM     12  O   UNL     1       0.050   2.312  -0.881  0.00  0.00    +0.000 OA
ATOM     13  N   UNL     1      -1.778   1.248   0.011  0.00  0.00    +0.000 N 
ATOM     14  C   UNL     1      -2.305   2.509   0.526  0.00  0.00    +0.000 C 
ATOM     15  C   UNL     1      -2.261   0.084   0.512  0.00  0.00    +0.000 A 
ATOM     16  O   UNL     1      -3.240   0.022   1.289  0.00  0.00    +0.000 OA
ENDROOT
BRANCH   6   7
ATOM      7  C   UNL     1       2.572   0.893  -0.155  0.00  0.00    +0.000 C 
BRANCH   7   8
ATOM      8  C   UNL     1       3.957   0.340   0.045  0.00  0.00    +0.000 C 
BRANCH   8   9
ATOM      9  O   UNL     1       4.011  -0.643   1.021  0.00  0.00    +0.000 OA
ATOM     17  H   UNL     1       3.741  -0.268   1.874  0.00  0.00    +0.000 HD
ENDBRANCH   8   9
ENDBRANCH   7   8
ENDBRANCH   6   7
TORSDOF 3
ENDMDL
MODEL       14
REMARK  Name = 
REMARK  5 active torsions:
REMARK  status: ('A' for Active; 'I' for Inactive)
REMARK    1  A    between atoms: C_1  and  N_2
REMARK    2  A    between atoms: N_6  and  C_7
REMARK    3  A    between atoms: C_7  and  C_8
REMARK    4  A    between atoms: C_8  and  O_10
REMARK    5  A    between atoms: N_14  and  C_15
REMARK                            x       y       z     vdW  Elec       q    Type
REMARK                         _______ _______ _______ _____ _____    ______ ____
ROOT
ATOM      1  C   UNL     1      -3.094  -1.639   0.887  0.00  0.00    +0.000 C 
ATOM      2  N   UNL     1      -2.147  -0.730   0.247  0.00  0.00    +0.000 N 
ATOM      3  C   UNL     1      -0.951  -1.200  -0.179  0.00  0.00    +0.000 A 
ATOM      4  N   UNL     1      -0.396  -2.413  -0.286  0.00  0.00    +0.000 NA
ATOM      5  C   UNL     1       0.923  -2.276  -0.408  0.00  0.00    +0.000 A 
ATOM      6  N   UNL     1       1.271  -0.989  -0.160  0.00  0.00    +0.000 N 
ATOM     11  C   UNL     1       0.101  -0.305  -0.213  0.00  0.00    +0.000 A 
ATOM     12  C   UNL     1      -0.210   1.020  -0.386  0.00  0.00    +0.000 A 
ATOM     13  O   UNL     1       0.686   1.884  -0.218  0.00  0.00    +0.000 OA
ATOM     14  N   UNL     1      -1.485   1.419  -0.207  0.00  0.00    +0.000 N 
ATOM     15  C   UNL     1      -1.798   2.838  -0.326  0.00  0.00    +0.000 C 
ATOM     16  C   UNL     1      -2.500   0.560   0.024  0.00  0.00    +0.000 A 
ATOM     17  O   UNL     1      -3.684   0.970   0.217  0.00  0.00    +0.000 OA
ENDROOT
BRANCH   6   7
ATOM      7  C   UNL     1       2.489  -0.421  -0.726  0.00  0.00    +0.000 C 
BRANCH   7   8
ATOM      8  C   UNL     1       3.292   0.250   0.330  0.00  0.00    +0.000 C 
ATOM      9  O   UNL     1       3.336  -0.219   1.507  0.00  0.00    +0.000 OA
BRANCH   8  10
ATOM     10  O   UNL     1       4.168   1.252  -0.103  0.00  0.00    +0.000 OA
ATOM     18  H   UNL     1       4.110   1.577  -0.979  0.00  0.00    +0.000 HD
ENDBRANCH   8  10
ENDBRANCH   7   8
ENDBRANCH   6   7
TORSDOF 3
ENDMDL
MODEL       15
REMARK  Name = 
REMARK  7 active torsions:
REMARK  status: ('A' for Active; 'I' for Inactive)
REMARK    1  A    between atoms: C_1  and  N_2
REMARK    2  A    between atoms: N_2  and  C_3
REMARK    3  A    between atoms: N_2  and  C_4
REMARK    4  A    between atoms: C_4  and  C_5
REMARK    5  A    between atoms: C_5  and  N_6
REMARK    6  A    between atoms: N_13  and  C_14
REMARK    7  A    between atoms: N_17  and  C_18
REMARK                            x       y       z     vdW  Elec       q    Type
REMARK                         _______ _______ _______ _____ _____    ______ ____
ROOT
ATOM      6  N   UNL     1       1.003  -0.236  -0.034  0.00  0.00    +0.000 N 
ATOM      7  C   UNL     1       0.961  -1.582   0.092  0.00  0.00    +0.000 A 
ATOM      8  N   UNL     1      -0.294  -1.981   0.410  0.00  0.00    +0.000 NA
ATOM      9  C   UNL     1      -1.112  -0.979   0.033  0.00  0.00    +0.000 A 
ATOM     10  C   UNL     1      -0.295   0.147   0.032  0.00  0.00    +0.000 A 
ATOM     11  C   UNL     1      -0.899   1.390  -0.004  0.00  0.00    +0.000 A 
ATOM     12  O   UNL     1      -0.166   2.401   0.215  0.00  0.00    +0.000 OA
ATOM     13  N   UNL     1      -2.200   1.538  -0.353  0.00  0.00    +0.000 N 
ATOM     14  C   UNL     1      -2.603   2.738  -1.038  0.00  0.00    +0.000 C 
ATOM     15  C   UNL     1      -2.967   0.433  -0.306  0.00  0.00    +0.000 A 
ATOM     16  O   UNL     1      -4.199   0.529  -0.591  0.00  0.00    +0.000 OA
ATOM     17  N   UNL     1      -2.450  -0.767   0.055  0.00  0.00    +0.000 N 
ATOM     18  C   UNL     1      -3.306  -1.819   0.557  0.00  0.00    +0.000 C 
ENDROOT
BRANCH   6   5
ATOM      5  C   UNL     1       2.016   0.556  -0.725  0.00  0.00    +0.000 C 
BRANCH   5   4
ATOM      4  C   UNL     1       3.114  -0.388  -1.197  0.00  0.00    +0.000 C 
BRANCH   4   2
ATOM      1  C   UNL     1       4.837  -1.798  -0.267  0.00  0.00    +0.000 C 
ATOM      2  N   UNL     1       3.939  -0.693  -0.066  0.00  0.00    +0.000 NA
ATOM      3  C   UNL     1       4.620   0.511   0.400  0.00  0.00    +0.000 C 
ENDBRANCH   4   2
ENDBRANCH   5   4
ENDBRANCH   6   5
TORSDOF 3
ENDMDL
MODEL       16
REMARK  Name = 
REMARK  2 active torsions:
REMARK  status: ('A' for Active; 'I' for Inactive)
REMARK    1  A    between atoms: C_1  and  N_2
REMARK    2  A    between atoms: N_9  and  C_10
REMARK                            x       y       z     vdW  Elec       q    Type
REMARK                         _______ _______ _______ _____ _____    ______ ____
ROOT
ATOM      1  C   UNL     1       2.213   1.941   0.776  0.00  0.00    +0.000 C 
ATOM      2  N   UNL     1       1.949   0.724   0.008  0.00  0.00    +0.000 N 
ATOM      3  C   UNL     1       2.685  -0.390   0.247  0.00  0.00    +0.000 A 
ATOM      4  N   UNL     1       1.978  -1.462  -0.179  0.00  0.00    +0.000 NA
ATOM      5  C   UNL     1       0.676  -1.094  -0.244  0.00  0.00    +0.000 A 
ATOM      6  N   UNL     1      -0.500  -1.758  -0.124  0.00  0.00    +0.000 N 
ATOM      7  C   UNL     1      -1.601  -1.048   0.191  0.00  0.00    +0.000 A 
ATOM      8  O   UNL     1      -2.515  -1.507   0.938  0.00  0.00    +0.000 OA
ATOM      9  N   UNL     1      -1.674   0.227  -0.258  0.00  0.00    +0.000 N 
ATOM     10  C   UNL     1      -2.905   0.985  -0.085  0.00  0.00    +0.000 C 
ATOM     11  C   UNL     1      -0.519   0.915  -0.424  0.00  0.00    +0.000 A 
ATOM     12  O   UNL     1      -0.507   2.178  -0.484  0.00  0.00    +0.000 OA
ATOM     13  C   UNL     1       0.720   0.290  -0.363  0.00  0.00    +0.000 A 
ATOM     14  H   UNL     1      -0.549  -2.732  -0.264  0.00  0.00    +0.000 HD
ENDROOT
TORSDOF 0
ENDMDL
MODEL       17
REMARK  Name = 
REMARK  1 active torsions:
REMARK  status: ('A' for Active; 'I' for Inactive)
REMARK    1  A    between atoms: C_1  and  N_2
REMARK                            x       y       z     vdW  Elec       q    Type
REMARK                         _______ _______ _______ _____ _____    ______ ____
ROOT
ATOM      1  C   UNL     1      -2.523   1.163   0.930  0.00  0.00    +0.000 C 
ATOM      2  N   UNL     1      -1.823   0.144   0.149  0.00  0.00    +0.000 N 
ATOM      3  C   UNL     1      -2.162  -1.169   0.192  0.00  0.00    +0.000 A 
ATOM      4  N   UNL     1      -1.151  -1.886  -0.357  0.00  0.00    +0.000 NA
ATOM      5  C   UNL     1      -0.052  -1.094  -0.426  0.00  0.00    +0.000 A 
ATOM      6  N   UNL     1       1.268  -1.286  -0.201  0.00  0.00    +0.000 N 
ATOM      7  C   UNL     1       2.102  -0.277   0.118  0.00  0.00    +0.000 A 
ATOM      8  O   UNL     1       3.030  -0.376   0.954  0.00  0.00    +0.000 OA
ATOM      9  N   UNL     1       1.657   0.969  -0.153  0.00  0.00    +0.000 N 
ATOM     10  C   UNL     1       0.354   1.226  -0.425  0.00  0.00    +0.000 A 
ATOM     11  O   UNL     1      -0.126   2.394  -0.400  0.00  0.00    +0.000 OA
ATOM     12  C   UNL     1      -0.576   0.193  -0.382  0.00  0.00    +0.000 A 
ATOM     13  H   UNL     1       1.634  -2.197  -0.272  0.00  0.00    +0.000 HD
ATOM     14  H   UNL     1       2.300   1.715  -0.152  0.00  0.00    +0.000 HD
ENDROOT
TORSDOF 0
ENDMDL
MODEL       18
REMARK  Name = 
REMARK  1 active torsions:
REMARK  status: ('A' for Active; 'I' for Inactive)
REMARK    1  A    between atoms: C_1  and  N_2
REMARK                            x       y       z     vdW  Elec       q    Type
REMARK                         _______ _______ _______ _____ _____    ______ ____
ROOT
ATOM      1  C   UNL     1       2.719  -1.367  -0.978  0.00  0.00    +0.000 C 
ATOM      2  N   UNL     1       1.923  -0.563  -0.052  0.00  0.00    +0.000 N 
ATOM      3  C   UNL     1       2.336   0.483   0.680  0.00  0.00    +0.000 A 
ATOM      4  N   UNL     1       1.351   1.414   0.723  0.00  0.00    +0.000 NA
ATOM      5  C   UNL     1       0.189   0.777   0.439  0.00  0.00    +0.000 A 
ATOM      6  C   UNL     1       0.573  -0.444  -0.078  0.00  0.00    +0.000 A 
ATOM      7  N   UNL     1      -0.392  -1.319  -0.382  0.00  0.00    +0.000 N 
ATOM      8  C   UNL     1      -1.703  -1.030  -0.268  0.00  0.00    +0.000 A 
ATOM      9  O   UNL     1      -2.590  -1.900  -0.053  0.00  0.00    +0.000 OA
ATOM     10  N   UNL     1      -2.017   0.266  -0.027  0.00  0.00    +0.000 N 
ATOM     11  C   UNL     1      -1.073   1.228   0.068  0.00  0.00    +0.000 A 
ATOM     12  O   UNL     1      -1.318   2.455  -0.072  0.00  0.00    +0.000 OA
ATOM     13  H   UNL     1      -0.134  -2.213  -0.702  0.00  0.00    +0.000 HD
ATOM     14  H   UNL     1      -2.963   0.514   0.082  0.00  0.00    +0.000 HD
ENDROOT
TORSDOF 0
ENDMDL
MODEL       19
REMARK  Name = 
REMARK  3 active torsions:
REMARK  status: ('A' for Active; 'I' for Inactive)
REMARK    1  A    between atoms: C_1  and  C_2
REMARK    2  A    between atoms: C_2  and  C_3
REMARK    3  A    between atoms: C_3  and  N_4
REMARK                            x       y       z     vdW  Elec       q    Type
REMARK                         _______ _______ _______ _____ _____    ______ ____
ROOT
ATOM      4  N   UNL     1       0.743   0.139  -0.053  0.00  0.00    +0.000 N 
ATOM      5  C   UNL     1      -0.434   0.803  -0.095  0.00  0.00    +0.000 A 
ATOM      6  N   UNL     1      -0.807   2.093  -0.201  0.00  0.00    +0.000 NA
ATOM      7  C   UNL     1      -2.134   2.168  -0.016  0.00  0.00    +0.000 A 
ATOM      8  N   UNL     1      -2.653   0.939   0.180  0.00  0.00    +0.000 N 
ATOM      9  C   UNL     1      -1.592   0.113   0.185  0.00  0.00    +0.000 A 
ATOM     10  C   UNL     1      -1.617  -1.275   0.108  0.00  0.00    +0.000 A 
ATOM     11  O   UNL     1      -2.708  -1.911   0.023  0.00  0.00    +0.000 OA
ATOM     12  N   UNL     1      -0.415  -1.876  -0.065  0.00  0.00    +0.000 N 
ATOM     13  C   UNL     1       0.728  -1.191  -0.227  0.00  0.00    +0.000 A 
ATOM     14  O   UNL     1       1.750  -1.776  -0.678  0.00  0.00    +0.000 OA
ATOM     15  H   UNL     1      -3.601   0.699   0.295  0.00  0.00    +0.000 HD
ATOM     16  H   UNL     1      -0.378  -2.860  -0.072  0.00  0.00    +0.000 HD
ENDROOT
BRANCH   4   3
ATOM      3  C   UNL     1       1.936   0.935  -0.196  0.00  0.00    +0.000 C 
BRANCH   3   2
ATOM      1  C   UNL     1       4.007   0.710   1.094  0.00  0.00    +0.000 C 
ATOM      2  C   UNL     1       3.197   0.130  -0.059  0.00  0.00    +0.000 C 
ENDBRANCH   3   2
ENDBRANCH   4   3
TORSDOF 2
ENDMDL
MODEL       20
REMARK  Name = 
REMARK  3 active torsions:
REMARK  status: ('A' for Active; 'I' for Inactive)
REMARK    1  A    between atoms: C_1  and  N_2
REMARK    2  A    between atoms: N_7  and  C_8
REMARK    3  A    between atoms: N_11  and  C_12
REMARK                            x       y       z     vdW  Elec       q    Type
REMARK                         _______ _______ _______ _____ _____    ______ ____
ROOT
ATOM      1  C   UNL     1      -3.166   0.999  -0.139  0.00  0.00    +0.000 C 
ATOM      2  N   UNL     1      -2.165  -0.044  -0.124  0.00  0.00    +0.000 N 
ATOM      3  C   UNL     1      -2.379  -1.334  -0.402  0.00  0.00    +0.000 A 
ATOM      4  N   UNL     1      -1.234  -2.006  -0.170  0.00  0.00    +0.000 NA
ATOM      5  C   UNL     1      -0.275  -1.119   0.132  0.00  0.00    +0.000 A 
ATOM      6  C   UNL     1      -0.886   0.117   0.297  0.00  0.00    +0.000 A 
ATOM      7  N   UNL     1      -0.056   1.183   0.409  0.00  0.00    +0.000 N 
ATOM      8  C   UNL     1      -0.695   2.439   0.738  0.00  0.00    +0.000 C 
ATOM      9  C   UNL     1       1.219   1.160  -0.046  0.00  0.00    +0.000 A 
ATOM     10  O   UNL     1       1.842   2.204  -0.336  0.00  0.00    +0.000 OA
ATOM     11  N   UNL     1       1.837  -0.033  -0.001  0.00  0.00    +0.000 N 
ATOM     12  C   UNL     1       3.187  -0.127  -0.532  0.00  0.00    +0.000 C 
ATOM     13  C   UNL     1       1.107  -1.157   0.003  0.00  0.00    +0.000 A 
ATOM     14  O   UNL     1       1.664  -2.283   0.170  0.00  0.00    +0.000 OA
ENDROOT
TORSDOF 0
ENDMDL
MODEL       21
REMARK  Name = 
REMARK  8 active torsions:
REMARK  status: ('A' for Active; 'I' for Inactive)
REMARK    1  A    between atoms: C_1  and  N_2
REMARK    2  A    between atoms: N_6  and  C_7
REMARK    3  A    between atoms: C_7  and  C_8
REMARK    4  A    between atoms: C_8  and  O_9
REMARK    5  A    between atoms: O_9  and  C_10
REMARK    6  A    between atoms: C_10  and  O_11
REMARK    7  A    between atoms: C_10  and  C_12
REMARK    8  A    between atoms: N_19  and  C_20
REMARK                            x       y       z     vdW  Elec       q    Type
REMARK                         _______ _______ _______ _____ _____    ______ ____
ROOT
ATOM      1  C   UNL     1      -3.787   2.165  -1.050  0.00  0.00    +0.000 C 
ATOM      2  N   UNL     1      -3.309   1.112  -0.604  0.00  0.00    +0.000 N 
ATOM      3  C   UNL     1      -1.968   0.980  -0.468  0.00  0.00    +0.000 A 
ATOM      4  N   UNL     1      -0.943   1.747  -0.907  0.00  0.00    +0.000 NA
ATOM      5  C   UNL     1       0.197   1.051  -0.754  0.00  0.00    +0.000 A 
ATOM      6  N   UNL     1      -0.071  -0.135  -0.156  0.00  0.00    +0.000 N 
ATOM     16  C   UNL     1      -1.398  -0.143   0.120  0.00  0.00    +0.000 A 
ATOM     17  C   UNL     1      -2.262  -1.141   0.556  0.00  0.00    +0.000 A 
ATOM     18  O   UNL     1      -1.738  -2.176   1.044  0.00  0.00    +0.000 OA
ATOM     19  N   UNL     1      -3.589  -0.921   0.585  0.00  0.00    +0.000 N 
ATOM     20  C   UNL     1      -4.450  -2.019   0.973  0.00  0.00    +0.000 C 
ATOM     21  C   UNL     1      -4.063   0.117  -0.142  0.00  0.00    +0.000 A 
ATOM     22  O   UNL     1      -5.308   0.308  -0.092  0.00  0.00    +0.000 OA
ENDROOT
BRANCH   6   7
ATOM      7  C   UNL     1       0.758  -1.321  -0.189  0.00  0.00    +0.000 C 
BRANCH   7   8
ATOM      8  C   UNL     1       1.929  -1.090  -1.129  0.00  0.00    +0.000 C 
BRANCH   8   9
ATOM      9  O   UNL     1       2.588   0.064  -0.674  0.00  0.00    +0.000 OA
BRANCH   9  10
ATOM     10  C   UNL     1       3.524  -0.631   0.380  0.00  0.00    +0.000 C 
BRANCH  10  12
ATOM     12  C   UNL     1       4.863   0.339  -0.024  0.00  0.00    +0.000 C 
ATOM     13 CL   UNL     1       4.728   0.802  -1.666  0.00  0.00    +0.000 Cl
ATOM     14 CL   UNL     1       6.123  -0.935   0.080  0.00  0.00    +0.000 Cl
ATOM     15 CL   UNL     1       5.160   1.478   1.189  0.00  0.00    +0.000 Cl
ENDBRANCH  10  12
BRANCH  10  11
ATOM     11  O   UNL     1       3.018   0.349   1.499  0.00  0.00    +0.000 OA
ATOM     23  H   UNL     1       3.025   1.258   1.161  0.00  0.00    +0.000 HD
ENDBRANCH  10  11
ENDBRANCH   9  10
ENDBRANCH   8   9
ENDBRANCH   7   8
ENDBRANCH   6   7
TORSDOF 6
ENDMDL
MODEL       22
REMARK  Name = 
REMARK  8 active torsions:
REMARK  status: ('A' for Active; 'I' for Inactive)
REMARK    1  A    between atoms: C_1  and  C_2
REMARK    2  A    between atoms: C_2  and  C_4
REMARK    3  A    between atoms: C_4  and  C_5
REMARK    4  A    between atoms: C_5  and  C_6
REMARK    5  A    between atoms: C_6  and  C_7
REMARK    6  A    between atoms: C_7  and  N_8
REMARK    7  A    between atoms: N_15  and  C_16
REMARK    8  A    between atoms: N_17  and  C_18
REMARK                            x       y       z     vdW  Elec       q    Type
REMARK                         _______ _______ _______ _____ _____    ______ ____
ROOT
ATOM      8  N   UNL     1      -0.193  -1.064  -0.217  0.00  0.00    +0.000 N 
ATOM      9  C   UNL     1      -0.695   0.068  -0.765  0.00  0.00    +0.000 A 
ATOM     10  O   UNL     1       0.073   0.834  -1.389  0.00  0.00    +0.000 OA
ATOM     11  C   UNL     1      -1.930   0.550  -0.407  0.00  0.00    +0.000 A 
ATOM     12  C   UNL     1      -2.749  -0.294   0.329  0.00  0.00    +0.000 A 
ATOM     13  N   UNL     1      -3.947   0.331   0.366  0.00  0.00    +0.000 NA
ATOM     14  C   UNL     1      -3.791   1.556  -0.144  0.00  0.00    +0.000 A 
ATOM     15  N   UNL     1      -2.517   1.766  -0.533  0.00  0.00    +0.000 N 
ATOM     16  C   UNL     1      -1.813   3.043  -0.625  0.00  0.00    +0.000 C 
ATOM     17  N   UNL     1      -2.248  -1.411   0.913  0.00  0.00    +0.000 N 
ATOM     18  C   UNL     1      -3.009  -2.045   1.959  0.00  0.00    +0.000 C 
ATOM     19  C   UNL     1      -1.086  -1.854   0.425  0.00  0.00    +0.000 A 
ATOM     20  O   UNL     1      -0.653  -2.958   0.845  0.00  0.00    +0.000 OA
ENDROOT
BRANCH   8   7
ATOM      7  C   UNL     1       1.231  -1.178   0.088  0.00  0.00    +0.000 C 
BRANCH   7   6
ATOM      6  C   UNL     1       2.085  -1.207  -1.144  0.00  0.00    +0.000 C 
BRANCH   6   5
ATOM      5  C   UNL     1       3.517  -0.921  -0.705  0.00  0.00    +0.000 C 
BRANCH   5   4
ATOM      4  C   UNL     1       3.503   0.089   0.436  0.00  0.00    +0.000 C 
BRANCH   4   2
ATOM      1  C   UNL     1       4.927   2.064   1.295  0.00  0.00    +0.000 C 
ATOM      2  C   UNL     1       4.584   1.094   0.209  0.00  0.00    +0.000 C 
ATOM      3  O   UNL     1       4.711   1.536  -0.932  0.00  0.00    +0.000 OA
ENDBRANCH   4   2
ENDBRANCH   5   4
ENDBRANCH   6   5
ENDBRANCH   7   6
ENDBRANCH   8   7
TORSDOF 5
ENDMDL
MODEL       23
REMARK  Name = 
REMARK  9 active torsions:
REMARK  status: ('A' for Active; 'I' for Inactive)
REMARK    1  A    between atoms: C_1  and  C_2
REMARK    2  A    between atoms: C_2  and  O_3
REMARK    3  A    between atoms: C_2  and  C_4
REMARK    4  A    between atoms: C_4  and  C_5
REMARK    5  A    between atoms: C_5  and  C_6
REMARK    6  A    between atoms: C_6  and  C_7
REMARK    7  A    between atoms: C_7  and  N_8
REMARK    8  A    between atoms: N_15  and  C_16
REMARK    9  A    between atoms: N_17  and  C_18
REMARK                            x       y       z     vdW  Elec       q    Type
REMARK                         _______ _______ _______ _____ _____    ______ ____
ROOT
ATOM      8  N   UNL     1      -0.123   0.324  -0.380  0.00  0.00    +0.000 N 
ATOM      9  C   UNL     1      -1.091   1.167   0.041  0.00  0.00    +0.000 A 
ATOM     10  O   UNL     1      -0.886   2.404   0.103  0.00  0.00    +0.000 OA
ATOM     11  C   UNL     1      -2.385   0.736   0.098  0.00  0.00    +0.000 A 
ATOM     12  C   UNL     1      -2.650  -0.585  -0.097  0.00  0.00    +0.000 A 
ATOM     13  N   UNL     1      -3.933  -0.819   0.178  0.00  0.00    +0.000 NA
ATOM     14  C   UNL     1      -4.459   0.368   0.496  0.00  0.00    +0.000 A 
ATOM     15  N   UNL     1      -3.550   1.335   0.351  0.00  0.00    +0.000 N 
ATOM     16  C   UNL     1      -3.714   2.756   0.498  0.00  0.00    +0.000 C 
ATOM     17  N   UNL     1      -1.704  -1.400  -0.569  0.00  0.00    +0.000 N 
ATOM     18  C   UNL     1      -2.015  -2.745  -0.966  0.00  0.00    +0.000 C 
ATOM     19  C   UNL     1      -0.466  -0.930  -0.713  0.00  0.00    +0.000 A 
ATOM     20  O   UNL     1       0.420  -1.701  -1.161  0.00  0.00    +0.000 OA
ENDROOT
BRANCH   8   7
ATOM      7  C   UNL     1       1.200   0.623   0.110  0.00  0.00    +0.000 C 
BRANCH   7   6
ATOM      6  C   UNL     1       1.863  -0.725   0.396  0.00  0.00    +0.000 C 
BRANCH   6   5
ATOM      5  C   UNL     1       3.235  -0.555  -0.188  0.00  0.00    +0.000 C 
BRANCH   5   4
ATOM      4  C   UNL     1       4.008   0.141   0.925  0.00  0.00    +0.000 C 
BRANCH   4   2
ATOM      1  C   UNL     1       5.513  -1.355  -0.174  0.00  0.00    +0.000 C 
ATOM      2  C   UNL     1       5.575   0.190   0.405  0.00  0.00    +0.000 C 
BRANCH   2   3
ATOM      3  O   UNL     1       5.163   0.771  -0.941  0.00  0.00    +0.000 OA
ATOM     21  H   UNL     1       4.409   0.272  -1.292  0.00  0.00    +0.000 HD
ENDBRANCH   2   3
ENDBRANCH   4   2
ENDBRANCH   5   4
ENDBRANCH   6   5
ENDBRANCH   7   6
ENDBRANCH   8   7
TORSDOF 6
ENDMDL
MODEL       24
REMARK  Name = 
REMARK  10 active torsions:
REMARK  status: ('A' for Active; 'I' for Inactive)
REMARK    1  A    between atoms: C_1  and  C_2
REMARK    2  A    between atoms: C_2  and  C_3
REMARK    3  A    between atoms: C_3  and  N_4
REMARK    4  A    between atoms: N_11  and  C_12
REMARK    5  A    between atoms: C_12  and  C_13
REMARK    6  A    between atoms: C_13  and  C_14
REMARK    7  A    between atoms: C_14  and  C_15
REMARK    8  A    between atoms: C_15  and  C_16
REMARK    9  A    between atoms: C_16  and  C_17
REMARK   10  A    between atoms: N_21  and  C_22
REMARK                            x       y       z     vdW  Elec       q    Type
REMARK                         _______ _______ _______ _____ _____    ______ ____
ROOT
ATOM      4  N   UNL     1      -3.503  -0.107   0.023  0.00  0.00    +0.000 N 
ATOM      5  C   UNL     1      -4.122  -1.119   0.678  0.00  0.00    +0.000 A 
ATOM      6  N   UNL     1      -3.204  -1.872   1.301  0.00  0.00    +0.000 NA
ATOM      7  C   UNL     1      -1.981  -1.405   0.997  0.00  0.00    +0.000 A 
ATOM      8  C   UNL     1      -2.195  -0.191   0.370  0.00  0.00    +0.000 A 
ATOM      9  C   UNL     1      -1.107   0.423  -0.206  0.00  0.00    +0.000 A 
ATOM     10  O   UNL     1      -1.210   1.661  -0.432  0.00  0.00    +0.000 OA
ATOM     11  N   UNL     1       0.135  -0.120  -0.205  0.00  0.00    +0.000 N 
ATOM     19  C   UNL     1       0.256  -1.377   0.284  0.00  0.00    +0.000 A 
ATOM     20  O   UNL     1       1.237  -2.050  -0.138  0.00  0.00    +0.000 OA
ATOM     21  N   UNL     1      -0.789  -2.004   0.856  0.00  0.00    +0.000 N 
ATOM     22  C   UNL     1      -0.609  -3.280   1.510  0.00  0.00    +0.000 C 
ENDROOT
BRANCH   4   3
ATOM      3  C   UNL     1      -4.150   1.196  -0.106  0.00  0.00    +0.000 C 
BRANCH   3   2
ATOM      1  C   UNL     1      -4.407   3.168  -1.500  0.00  0.00    +0.000 C 
ATOM      2  C   UNL     1      -4.146   1.666  -1.533  0.00  0.00    +0.000 C 
ENDBRANCH   3   2
ENDBRANCH   4   3
BRANCH  11  12
ATOM     12  C   UNL     1       1.336   0.701  -0.236  0.00  0.00    +0.000 C 
BRANCH  12  13
ATOM     13  C   UNL     1       2.402   0.107  -1.122  0.00  0.00    +0.000 C 
BRANCH  13  14
ATOM     14  C   UNL     1       3.522   1.108  -1.238  0.00  0.00    +0.000 C 
BRANCH  14  15
ATOM     15  C   UNL     1       4.241   1.263   0.072  0.00  0.00    +0.000 C 
BRANCH  15  16
ATOM     16  C   UNL     1       5.627   0.696   0.018  0.00  0.00    +0.000 C 
ATOM     17  C   UNL     1       6.746   1.535   0.557  0.00  0.00    +0.000 C 
ATOM     18  O   UNL     1       5.922   0.001  -0.952  0.00  0.00    +0.000 OA
ENDBRANCH  15  16
ENDBRANCH  14  15
ENDBRANCH  13  14
ENDBRANCH  12  13
ENDBRANCH  11  12
TORSDOF 7
ENDMDL
MODEL       25
REMARK  Name = 
REMARK  11 active torsions:
REMARK  status: ('A' for Active; 'I' for Inactive)
REMARK    1  A    between atoms: C_1  and  C_2
REMARK    2  A    between atoms: C_2  and  C_3
REMARK    3  A    between atoms: C_3  and  C_4
REMARK    4  A    between atoms: C_4  and  N_5
REMARK    5  A    between atoms: N_9  and  C_10
REMARK    6  A    between atoms: C_10  and  C_11
REMARK    7  A    between atoms: C_11  and  C_12
REMARK    8  A    between atoms: N_17  and  C_18
REMARK    9  A    between atoms: C_18  and  C_19
REMARK   10  A    between atoms: C_19  and  C_20
REMARK   11  A    between atoms: C_20  and  C_21
REMARK                            x       y       z     vdW  Elec       q    Type
REMARK                         _______ _______ _______ _____ _____    ______ ____
ROOT
ATOM      5  N   UNL     1       1.545  -0.204  -0.123  0.00  0.00    +0.000 N 
ATOM      6  C   UNL     1       0.797  -1.267  -0.512  0.00  0.00    +0.000 A 
ATOM      7  N   UNL     1       0.962  -2.596  -0.319  0.00  0.00    +0.000 NA
ATOM      8  C   UNL     1      -0.221  -3.213  -0.563  0.00  0.00    +0.000 A 
ATOM      9  N   UNL     1      -1.199  -2.285  -0.707  0.00  0.00    +0.000 N 
ATOM     14  C   UNL     1      -0.545  -1.123  -0.845  0.00  0.00    +0.000 A 
ATOM     15  C   UNL     1      -0.923   0.111  -1.304  0.00  0.00    +0.000 A 
ATOM     16  O   UNL     1      -2.077   0.213  -1.807  0.00  0.00    +0.000 OA
ATOM     17  N   UNL     1      -0.175   1.192  -0.977  0.00  0.00    +0.000 N 
ATOM     22  C   UNL     1       0.991   1.010  -0.354  0.00  0.00    +0.000 A 
ATOM     23  O   UNL     1       1.475   2.033   0.221  0.00  0.00    +0.000 OA
ENDROOT
BRANCH   5   4
ATOM      4  C   UNL     1       2.420  -0.292   1.044  0.00  0.00    +0.000 C 
BRANCH   4   3
ATOM      3  C   UNL     1       3.724   0.426   0.834  0.00  0.00    +0.000 C 
BRANCH   3   2
ATOM      1  C   UNL     1       4.582  -0.868   2.811  0.00  0.00    +0.000 C 
ATOM      2  C   UNL     1       4.883  -0.381   1.398  0.00  0.00    +0.000 C 
ENDBRANCH   3   2
ENDBRANCH   4   3
ENDBRANCH   5   4
BRANCH   9  10
ATOM     10  C   UNL     1      -2.614  -2.394  -0.407  0.00  0.00    +0.000 C 
BRANCH  10  11
ATOM     11  C   UNL     1      -2.996  -1.555   0.774  0.00  0.00    +0.000 C 
ATOM     12  C   UNL     1      -2.012  -1.200   1.847  0.00  0.00    +0.000 C 
ATOM     13  O   UNL     1      -4.138  -1.188   0.941  0.00  0.00    +0.000 OA
ENDBRANCH  10  11
ENDBRANCH   9  10
BRANCH  17  18
ATOM     18  C   UNL     1      -0.365   2.379  -1.807  0.00  0.00    +0.000 C 
BRANCH  18  19
ATOM     19  C   UNL     1      -1.470   3.257  -1.235  0.00  0.00    +0.000 C 
BRANCH  19  20
ATOM     20  C   UNL     1      -1.413   3.279   0.269  0.00  0.00    +0.000 C 
ATOM     21  C   UNL     1      -1.233   4.668   0.819  0.00  0.00    +0.000 C 
ENDBRANCH  19  20
ENDBRANCH  18  19
ENDBRANCH  17  18
TORSDOF 8
ENDMDL
MODEL       26
REMARK  Name = 
REMARK  8 active torsions:
REMARK  status: ('A' for Active; 'I' for Inactive)
REMARK    1  A    between atoms: C_1  and  C_2
REMARK    2  A    between atoms: C_2  and  C_3
REMARK    3  A    between atoms: C_3  and  C_4
REMARK    4  A    between atoms: C_4  and  C_5
REMARK    5  A    between atoms: C_5  and  C_6
REMARK    6  A    between atoms: C_6  and  N_7
REMARK    7  A    between atoms: N_14  and  C_15
REMARK    8  A    between atoms: N_16  and  C_17
REMARK                            x       y       z     vdW  Elec       q    Type
REMARK                         _______ _______ _______ _____ _____    ______ ____
ROOT
ATOM      7  N   UNL     1       0.185  -0.037   0.003  0.00  0.00    +0.000 N 
ATOM      8  C   UNL     1      -0.799   0.824   0.367  0.00  0.00    +0.000 A 
ATOM      9  O   UNL     1      -0.520   2.023   0.653  0.00  0.00    +0.000 OA
ATOM     10  C   UNL     1      -2.140   0.551   0.137  0.00  0.00    +0.000 A 
ATOM     11  C   UNL     1      -2.472  -0.791   0.006  0.00  0.00    +0.000 A 
ATOM     12  N   UNL     1      -3.778  -0.801  -0.347  0.00  0.00    +0.000 NA
ATOM     13  C   UNL     1      -4.159   0.461  -0.664  0.00  0.00    +0.000 A 
ATOM     14  N   UNL     1      -3.214   1.298  -0.222  0.00  0.00    +0.000 N 
ATOM     15  C   UNL     1      -3.136   2.685  -0.675  0.00  0.00    +0.000 C 
ATOM     16  N   UNL     1      -1.467  -1.688  -0.019  0.00  0.00    +0.000 N 
ATOM     17  C   UNL     1      -1.828  -3.101  -0.080  0.00  0.00    +0.000 C 
ATOM     18  C   UNL     1      -0.174  -1.319  -0.176  0.00  0.00    +0.000 A 
ATOM     19  O   UNL     1       0.643  -2.069  -0.785  0.00  0.00    +0.000 OA
ENDROOT
BRANCH   7   6
ATOM      6  C   UNL     1       1.472   0.497  -0.427  0.00  0.00    +0.000 C 
BRANCH   6   5
ATOM      5  C   UNL     1       2.454   0.579   0.709  0.00  0.00    +0.000 C 
BRANCH   5   4
ATOM      4  C   UNL     1       3.330  -0.651   0.632  0.00  0.00    +0.000 C 
BRANCH   4   3
ATOM      3  C   UNL     1       4.438  -0.469  -0.366  0.00  0.00    +0.000 C 
BRANCH   3   2
ATOM      1  C   UNL     1       6.306   1.031  -0.931  0.00  0.00    +0.000 C 
ATOM      2  C   UNL     1       4.859   0.979  -0.464  0.00  0.00    +0.000 C 
ENDBRANCH   3   2
ENDBRANCH   4   3
ENDBRANCH   5   4
ENDBRANCH   6   5
ENDBRANCH   7   6
TORSDOF 5
ENDMDL
MODEL       27
REMARK  Name = 
REMARK  13 active torsions:
REMARK  status: ('A' for Active; 'I' for Inactive)
REMARK    1  A    between atoms: C_1  and  C_2
REMARK    2  A    between atoms: C_2  and  O_3
REMARK    3  A    between atoms: O_3  and  C_4
REMARK    4  A    between atoms: C_4  and  N_5
REMARK    5  A    between atoms: N_12  and  C_13
REMARK    6  A    between atoms: C_13  and  C_14
REMARK    7  A    between atoms: C_14  and  C_15
REMARK    8  A    between atoms: C_15  and  C_16
REMARK    9  A    between atoms: C_16  and  C_17
REMARK   10  A    between atoms: C_17  and  C_18
REMARK   11  A    between atoms: C_17  and  C_19
REMARK   12  A    between atoms: C_17  and  O_20
REMARK   13  A    between atoms: N_23  and  C_24
REMARK                            x       y       z     vdW  Elec       q    Type
REMARK                         _______ _______ _______ _____ _____    ______ ____
ROOT
ATOM      5  N   UNL     1      -3.431  -0.448   0.347  0.00  0.00    +0.000 N 
ATOM      6  C   UNL     1      -4.017  -1.658   0.179  0.00  0.00    +0.000 A 
ATOM      7  N   UNL     1      -3.066  -2.606   0.261  0.00  0.00    +0.000 NA
ATOM      8  C   UNL     1      -1.841  -2.031   0.353  0.00  0.00    +0.000 A 
ATOM      9  C   UNL     1      -2.104  -0.675   0.492  0.00  0.00    +0.000 A 
ATOM     10  C   UNL     1      -0.997   0.161   0.449  0.00  0.00    +0.000 A 
ATOM     11  O   UNL     1      -1.181   1.388   0.646  0.00  0.00    +0.000 OA
ATOM     12  N   UNL     1       0.238  -0.311   0.147  0.00  0.00    +0.000 N 
ATOM     21  C   UNL     1       0.363  -1.574  -0.301  0.00  0.00    +0.000 A 
ATOM     22  O   UNL     1       1.265  -1.861  -1.122  0.00  0.00    +0.000 OA
ATOM     23  N   UNL     1      -0.576  -2.457   0.116  0.00  0.00    +0.000 N 
ATOM     24  C   UNL     1      -0.334  -3.854  -0.196  0.00  0.00    +0.000 C 
ENDROOT
BRANCH   5   4
ATOM      4  C   UNL     1      -3.973   0.756  -0.279  0.00  0.00    +0.000 C 
BRANCH   4   3
ATOM      3  O   UNL     1      -4.090   1.796   0.625  0.00  0.00    +0.000 OA
BRANCH   3   2
ATOM      1  C   UNL     1      -5.355   2.424  -1.234  0.00  0.00    +0.000 C 
ATOM      2  C   UNL     1      -4.469   2.926  -0.118  0.00  0.00    +0.000 C 
ENDBRANCH   3   2
ENDBRANCH   4   3
ENDBRANCH   5   4
BRANCH  12  13
ATOM     13  C   UNL     1       1.234   0.673  -0.254  0.00  0.00    +0.000 C 
BRANCH  13  14
ATOM     14  C   UNL     1       2.341   0.797   0.780  0.00  0.00    +0.000 C 
BRANCH  14  15
ATOM     15  C   UNL     1       3.477  -0.123   0.371  0.00  0.00    +0.000 C 
BRANCH  15  16
ATOM     16  C   UNL     1       4.178   0.412  -0.856  0.00  0.00    +0.000 C 
BRANCH  16  17
ATOM     17  C   UNL     1       5.326   1.337  -0.470  0.00  0.00    +0.000 C 
ATOM     18  C   UNL     1       4.772   2.598   0.182  0.00  0.00    +0.000 C 
ATOM     19  C   UNL     1       6.270   0.656   0.499  0.00  0.00    +0.000 C 
BRANCH  17  20
ATOM     20  O   UNL     1       5.968   1.675  -1.671  0.00  0.00    +0.000 OA
ATOM     25  H   UNL     1       5.336   2.107  -2.265  0.00  0.00    +0.000 HD
ENDBRANCH  17  20
ENDBRANCH  16  17
ENDBRANCH  15  16
ENDBRANCH  14  15
ENDBRANCH  13  14
ENDBRANCH  12  13
TORSDOF 9
ENDMDL
MODEL       28
REMARK  Name = 
REMARK  8 active torsions:
REMARK  status: ('A' for Active; 'I' for Inactive)
REMARK    1  A    between atoms: C_1  and  C_2
REMARK    2  A    between atoms: C_2  and  C_4
REMARK    3  A    between atoms: C_4  and  C_5
REMARK    4  A    between atoms: C_5  and  C_6
REMARK    5  A    between atoms: C_6  and  C_7
REMARK    6  A    between atoms: C_7  and  N_8
REMARK    7  A    between atoms: N_15  and  C_16
REMARK    8  A    between atoms: N_19  and  C_20
REMARK                            x       y       z     vdW  Elec       q    Type
REMARK                         _______ _______ _______ _____ _____    ______ ____
ROOT
ATOM      8  N   UNL     1       0.062  -0.845   0.262  0.00  0.00    +0.000 N 
ATOM      9  C   UNL     1      -0.188  -2.056  -0.269  0.00  0.00    +0.000 A 
ATOM     10  N   UNL     1      -1.509  -2.183  -0.542  0.00  0.00    +0.000 NA
ATOM     11  C   UNL     1      -2.085  -0.975  -0.343  0.00  0.00    +0.000 A 
ATOM     12  C   UNL     1      -1.162  -0.292   0.440  0.00  0.00    +0.000 A 
ATOM     13  C   UNL     1      -1.461   0.999   0.828  0.00  0.00    +0.000 A 
ATOM     14  O   UNL     1      -0.569   1.900   0.857  0.00  0.00    +0.000 OA
ATOM     15  N   UNL     1      -2.755   1.391   0.736  0.00  0.00    +0.000 N 
ATOM     16  C   UNL     1      -3.085   2.746   1.143  0.00  0.00    +0.000 C 
ATOM     17  C   UNL     1      -3.650   0.670   0.020  0.00  0.00    +0.000 A 
ATOM     18  O   UNL     1      -4.873   0.964   0.013  0.00  0.00    +0.000 OA
ATOM     19  N   UNL     1      -3.289  -0.433  -0.651  0.00  0.00    +0.000 N 
ATOM     20  C   UNL     1      -4.101  -1.094  -1.638  0.00  0.00    +0.000 C 
ENDROOT
BRANCH   8   7
ATOM      7  C   UNL     1       1.337  -0.154   0.094  0.00  0.00    +0.000 C 
BRANCH   7   6
ATOM      6  C   UNL     1       2.276  -0.510   1.211  0.00  0.00    +0.000 C 
BRANCH   6   5
ATOM      5  C   UNL     1       3.545   0.305   0.982  0.00  0.00    +0.000 C 
BRANCH   5   4
ATOM      4  C   UNL     1       3.992   0.202  -0.472  0.00  0.00    +0.000 C 
BRANCH   4   2
ATOM      1  C   UNL     1       5.834  -1.379   0.260  0.00  0.00    +0.000 C 
ATOM      2  C   UNL     1       5.459  -0.102  -0.426  0.00  0.00    +0.000 C 
ATOM      3  O   UNL     1       6.220   0.845  -0.253  0.00  0.00    +0.000 OA
ENDBRANCH   4   2
ENDBRANCH   5   4
ENDBRANCH   6   5
ENDBRANCH   7   6
ENDBRANCH   8   7
TORSDOF 5
ENDMDL
MODEL       29
REMARK  Name = 
REMARK  5 active torsions:
REMARK  status: ('A' for Active; 'I' for Inactive)
REMARK    1  A    between atoms: C_1  and  C_2
REMARK    2  A    between atoms: C_2  and  C_3
REMARK    3  A    between atoms: C_2  and  C_4
REMARK    4  A    between atoms: C_4  and  N_5
REMARK    5  A    between atoms: N_13  and  C_14
REMARK                            x       y       z     vdW  Elec       q    Type
REMARK                         _______ _______ _______ _____ _____    ______ ____
ROOT
ATOM      5  N   UNL     1       0.568  -0.318  -0.443  0.00  0.00    +0.000 N 
ATOM      6  C   UNL     1      -0.087   0.833  -0.182  0.00  0.00    +0.000 A 
ATOM      7  N   UNL     1       0.174   2.121  -0.492  0.00  0.00    +0.000 NA
ATOM      8  C   UNL     1      -0.886   2.876  -0.187  0.00  0.00    +0.000 A 
ATOM      9  N   UNL     1      -1.624   2.116   0.659  0.00  0.00    +0.000 N 
ATOM     10  C   UNL     1      -1.302   0.818   0.493  0.00  0.00    +0.000 A 
ATOM     11  C   UNL     1      -1.936  -0.391   0.600  0.00  0.00    +0.000 A 
ATOM     12  O   UNL     1      -3.128  -0.359   1.035  0.00  0.00    +0.000 OA
ATOM     13  N   UNL     1      -1.446  -1.459  -0.068  0.00  0.00    +0.000 N 
ATOM     14  C   UNL     1      -2.333  -2.526  -0.491  0.00  0.00    +0.000 C 
ATOM     15  C   UNL     1      -0.159  -1.450  -0.420  0.00  0.00    +0.000 A 
ATOM     16  O   UNL     1       0.338  -2.520  -0.880  0.00  0.00    +0.000 OA
ATOM     17  H   UNL     1      -2.292   2.459   1.295  0.00  0.00    +0.000 HD
ENDROOT
BRANCH   5   4
ATOM      4  C   UNL     1       1.940  -0.278  -0.880  0.00  0.00    +0.000 C 
BRANCH   4   2
ATOM      1  C   UNL     1       4.193   0.658  -0.368  0.00  0.00    +0.000 C 
ATOM      2  C   UNL     1       2.825   0.332   0.173  0.00  0.00    +0.000 C 
ATOM      3  C   UNL     1       2.862  -0.455   1.452  0.00  0.00    +0.000 C 
ENDBRANCH   4   2
ENDBRANCH   5   4
TORSDOF 2
ENDMDL
MODEL       30
REMARK  Name = 
REMARK  1 active torsions:
REMARK  status: ('A' for Active; 'I' for Inactive)
REMARK    1  A    between atoms: C_1  and  N_2
REMARK                            x       y       z     vdW  Elec       q    Type
REMARK                         _______ _______ _______ _____ _____    ______ ____
ROOT
ATOM      1  C   UNL     1      -1.255  -2.202   0.872  0.00  0.00    +0.000 C 
ATOM      2  N   UNL     1      -0.811  -1.013   0.173  0.00  0.00    +0.000 N 
ATOM      3  C   UNL     1       0.511  -0.738   0.072  0.00  0.00    +0.000 A 
ATOM      4  N   UNL     1       1.641  -1.454   0.283  0.00  0.00    +0.000 NA
ATOM      5  C   UNL     1       2.619  -0.676  -0.246  0.00  0.00    +0.000 A 
ATOM      6  N   UNL     1       2.186   0.608  -0.225  0.00  0.00    +0.000 N 
ATOM      7  C   UNL     1       0.862   0.605  -0.007  0.00  0.00    +0.000 A 
ATOM      8  C   UNL     1      -0.080   1.615  -0.132  0.00  0.00    +0.000 A 
ATOM      9  O   UNL     1       0.189   2.682   0.501  0.00  0.00    +0.000 OA
ATOM     10  N   UNL     1      -1.362   1.206  -0.302  0.00  0.00    +0.000 N 
ATOM     11  C   UNL     1      -1.695  -0.105  -0.299  0.00  0.00    +0.000 A 
ATOM     12  O   UNL     1      -2.804  -0.529  -0.690  0.00  0.00    +0.000 OA
ATOM     13  H   UNL     1       2.747   1.408  -0.349  0.00  0.00    +0.000 HD
ATOM     14  H   UNL     1      -2.067   1.881  -0.431  0.00  0.00    +0.000 HD
ENDROOT
TORSDOF 0
ENDMDL
MODEL       31
REMARK  Name = 
REMARK  7 active torsions:
REMARK  status: ('A' for Active; 'I' for Inactive)
REMARK    1  A    between atoms: C_1  and  N_2
REMARK    2  A    between atoms: N_9  and  C_10
REMARK    3  A    between atoms: C_10  and  C_11
REMARK    4  A    between atoms: C_11  and  C_12
REMARK    5  A    between atoms: C_12  and  C_13
REMARK    6  A    between atoms: C_13  and  O_15
REMARK    7  A    between atoms: N_18  and  C_19
REMARK                            x       y       z     vdW  Elec       q    Type
REMARK                         _______ _______ _______ _____ _____    ______ ____
ROOT
ATOM      1  C   UNL     1      -3.363   2.382   0.437  0.00  0.00    +0.000 C 
ATOM      2  N   UNL     1      -2.644   1.226   0.969  0.00  0.00    +0.000 N 
ATOM      3  C   UNL     1      -3.055   0.383   1.946  0.00  0.00    +0.000 A 
ATOM      4  N   UNL     1      -2.492  -0.833   1.774  0.00  0.00    +0.000 NA
ATOM      5  C   UNL     1      -1.696  -0.790   0.692  0.00  0.00    +0.000 A 
ATOM      6  C   UNL     1      -1.726   0.529   0.263  0.00  0.00    +0.000 A 
ATOM      7  C   UNL     1      -0.782   0.895  -0.681  0.00  0.00    +0.000 A 
ATOM      8  O   UNL     1      -0.891   2.020  -1.221  0.00  0.00    +0.000 OA
ATOM      9  N   UNL     1       0.175  -0.002  -1.015  0.00  0.00    +0.000 N 
ATOM     16  C   UNL     1      -0.141  -1.313  -0.907  0.00  0.00    +0.000 A 
ATOM     17  O   UNL     1       0.354  -2.189  -1.678  0.00  0.00    +0.000 OA
ATOM     18  N   UNL     1      -1.127  -1.734  -0.095  0.00  0.00    +0.000 N 
ATOM     19  C   UNL     1      -1.508  -3.118   0.025  0.00  0.00    +0.000 C 
ENDROOT
BRANCH   9  10
ATOM     10  C   UNL     1       1.179   0.409  -1.957  0.00  0.00    +0.000 C 
BRANCH  10  11
ATOM     11  C   UNL     1       2.549   0.560  -1.360  0.00  0.00    +0.000 C 
BRANCH  11  12
ATOM     12  C   UNL     1       2.519   0.802   0.133  0.00  0.00    +0.000 C 
BRANCH  12  13
ATOM     13  C   UNL     1       3.854   0.377   0.649  0.00  0.00    +0.000 C 
ATOM     14  O   UNL     1       4.015  -0.856   0.850  0.00  0.00    +0.000 OA
BRANCH  13  15
ATOM     15  O   UNL     1       4.780   1.251   1.177  0.00  0.00    +0.000 OA
ATOM     20  H   UNL     1       4.684   2.173   1.042  0.00  0.00    +0.000 HD
ENDBRANCH  13  15
ENDBRANCH  12  13
ENDBRANCH  11  12
ENDBRANCH  10  11
ENDBRANCH   9  10
TORSDOF 5
ENDMDL
MODEL       32
REMARK  Name = 
REMARK  7 active torsions:
REMARK  status: ('A' for Active; 'I' for Inactive)
REMARK    1  A    between atoms: C_1  and  C_2
REMARK    2  A    between atoms: C_2  and  C_3
REMARK    3  A    between atoms: C_3  and  C_4
REMARK    4  A    between atoms: C_3  and  C_5
REMARK    5  A    between atoms: C_5  and  N_6
REMARK    6  A    between atoms: C_9  and  C_10
REMARK    7  A    between atoms: N_15  and  C_16
REMARK                            x       y       z     vdW  Elec       q    Type
REMARK                         _______ _______ _______ _____ _____    ______ ____
ROOT
ATOM      6  N   UNL     1       0.477  -0.342  -0.563  0.00  0.00    +0.000 N 
ATOM      7  C   UNL     1      -0.337   0.735  -0.371  0.00  0.00    +0.000 A 
ATOM      8  N   UNL     1      -0.051   1.935   0.207  0.00  0.00    +0.000 NA
ATOM      9  C   UNL     1      -1.164   2.507   0.701  0.00  0.00    +0.000 A 
ATOM     10  C   UNL     1      -1.058   3.528   1.777  0.00  0.00    +0.000 C 
ATOM     11  N   UNL     1      -2.178   1.766   0.251  0.00  0.00    +0.000 N 
ATOM     12  C   UNL     1      -1.720   0.628  -0.335  0.00  0.00    +0.000 A 
ATOM     13  C   UNL     1      -2.290  -0.635  -0.286  0.00  0.00    +0.000 A 
ATOM     14  O   UNL     1      -3.459  -0.804   0.168  0.00  0.00    +0.000 OA
ATOM     15  N   UNL     1      -1.470  -1.709  -0.368  0.00  0.00    +0.000 N 
ATOM     16  C   UNL     1      -2.011  -3.007   0.055  0.00  0.00    +0.000 C 
ATOM     17  C   UNL     1      -0.194  -1.514  -0.720  0.00  0.00    +0.000 A 
ATOM     18  O   UNL     1       0.551  -2.531  -0.852  0.00  0.00    +0.000 OA
ATOM     19  H   UNL     1      -3.129   2.009   0.334  0.00  0.00    +0.000 HD
ENDROOT
BRANCH   6   5
ATOM      5  C   UNL     1       1.666  -0.351   0.268  0.00  0.00    +0.000 C 
BRANCH   5   3
ATOM      3  C   UNL     1       2.970  -0.597  -0.669  0.00  0.00    +0.000 C 
ATOM      4  C   UNL     1       2.773   0.800  -1.496  0.00  0.00    +0.000 C 
BRANCH   3   2
ATOM      1  C   UNL     1       3.556  -0.525   1.783  0.00  0.00    +0.000 C 
ATOM      2  C   UNL     1       3.938   0.115   0.450  0.00  0.00    +0.000 C 
ENDBRANCH   3   2
ENDBRANCH   5   3
ENDBRANCH   6   5
TORSDOF 3
ENDMDL
MODEL       33
REMARK  Name = 
REMARK  6 active torsions:
REMARK  status: ('A' for Active; 'I' for Inactive)
REMARK    1  A    between atoms: C_1  and  C_2
REMARK    2  A    between atoms: C_2  and  O_3
REMARK    3  A    between atoms: C_2  and  C_4
REMARK    4  A    between atoms: C_4  and  N_5
REMARK    5  A    between atoms: N_12  and  C_13
REMARK    6  A    between atoms: N_14  and  C_15
REMARK                            x       y       z     vdW  Elec       q    Type
REMARK                         _______ _______ _______ _____ _____    ______ ____
ROOT
ATOM      5  N   UNL     1       0.992   0.458   0.107  0.00  0.00    +0.000 N 
ATOM      6  C   UNL     1       0.326  -0.681  -0.216  0.00  0.00    +0.000 A 
ATOM      7  O   UNL     1       0.744  -1.476  -1.116  0.00  0.00    +0.000 OA
ATOM      8  C   UNL     1      -1.043  -0.698   0.026  0.00  0.00    +0.000 A 
ATOM      9  C   UNL     1      -1.699   0.503   0.281  0.00  0.00    +0.000 A 
ATOM     10  N   UNL     1      -2.995   0.239   0.481  0.00  0.00    +0.000 NA
ATOM     11  C   UNL     1      -3.061  -1.110   0.612  0.00  0.00    +0.000 A 
ATOM     12  N   UNL     1      -1.978  -1.680   0.026  0.00  0.00    +0.000 N 
ATOM     13  C   UNL     1      -1.945  -2.805  -0.909  0.00  0.00    +0.000 C 
ATOM     14  N   UNL     1      -1.056   1.664  -0.006  0.00  0.00    +0.000 N 
ATOM     15  C   UNL     1      -1.733   2.764  -0.678  0.00  0.00    +0.000 C 
ATOM     16  C   UNL     1       0.287   1.617   0.162  0.00  0.00    +0.000 A 
ATOM     17  O   UNL     1       0.893   2.714   0.210  0.00  0.00    +0.000 OA
ENDROOT
BRANCH   5   4
ATOM      4  C   UNL     1       2.317   0.566  -0.424  0.00  0.00    +0.000 C 
BRANCH   4   2
ATOM      1  C   UNL     1       4.111  -0.961  -0.411  0.00  0.00    +0.000 C 
ATOM      2  C   UNL     1       3.375   0.009   0.705  0.00  0.00    +0.000 C 
BRANCH   2   3
ATOM      3  O   UNL     1       2.464  -1.122   1.149  0.00  0.00    +0.000 OA
ATOM     18  H   UNL     1       2.104  -1.572   0.369  0.00  0.00    +0.000 HD
ENDBRANCH   2   3
ENDBRANCH   4   2
ENDBRANCH   5   4
TORSDOF 3
ENDMDL
MODEL       34
REMARK  Name = 
REMARK  1 active torsions:
REMARK  status: ('A' for Active; 'I' for Inactive)
REMARK    1  A    between atoms: C_1  and  N_2
REMARK                            x       y       z     vdW  Elec       q    Type
REMARK                         _______ _______ _______ _____ _____    ______ ____
ROOT
ATOM      1  C   UNL     1      -2.886   0.577   0.269  0.00  0.00    +0.000 C 
ATOM      2  N   UNL     1      -1.509   0.126   0.185  0.00  0.00    +0.000 N 
ATOM      3  C   UNL     1      -1.222  -1.155  -0.152  0.00  0.00    +0.000 A 
ATOM      4  O   UNL     1      -2.152  -1.985  -0.392  0.00  0.00    +0.000 OA
ATOM      5  N   UNL     1       0.032  -1.510  -0.526  0.00  0.00    +0.000 N 
ATOM      6  C   UNL     1       1.037  -0.604  -0.489  0.00  0.00    +0.000 A 
ATOM      7  N   UNL     1       2.391  -0.684  -0.502  0.00  0.00    +0.000 NA
ATOM      8  C   UNL     1       2.885   0.160   0.437  0.00  0.00    +0.000 A 
ATOM      9  N   UNL     1       1.914   1.075   0.677  0.00  0.00    +0.000 N 
ATOM     10  C   UNL     1       0.786   0.649   0.058  0.00  0.00    +0.000 A 
ATOM     11  C   UNL     1      -0.538   1.068   0.105  0.00  0.00    +0.000 A 
ATOM     12  O   UNL     1      -0.738   2.285   0.330  0.00  0.00    +0.000 OA
ATOM     13  H   UNL     1       0.212  -2.431  -0.827  0.00  0.00    +0.000 HD
ATOM     14  H   UNL     1       2.011   1.900   1.205  0.00  0.00    +0.000 HD
ENDROOT
TORSDOF 0
ENDMDL
MODEL       35
REMARK  Name = 
REMARK  0 active torsions:
REMARK  status: ('A' for Active; 'I' for Inactive)
REMARK                            x       y       z     vdW  Elec       q    Type
REMARK                         _______ _______ _______ _____ _____    ______ ____
ROOT
ATOM      1  O   UNL     1       2.910  -1.124  -0.103  0.00  0.00    +0.000 OA
ATOM      2  C   UNL     1       1.756  -0.633   0.081  0.00  0.00    +0.000 A 
ATOM      3  N   UNL     1       0.708  -1.259  -0.509  0.00  0.00    +0.000 N 
ATOM      4  C   UNL     1      -0.543  -0.796  -0.441  0.00  0.00    +0.000 A 
ATOM      5  N   UNL     1      -1.765  -1.373  -0.336  0.00  0.00    +0.000 NA
ATOM      6  C   UNL     1      -2.652  -0.365  -0.153  0.00  0.00    +0.000 A 
ATOM      7  N   UNL     1      -1.970   0.559   0.566  0.00  0.00    +0.000 N 
ATOM      8  C   UNL     1      -0.708   0.481   0.080  0.00  0.00    +0.000 A 
ATOM      9  C   UNL     1       0.408   1.305   0.122  0.00  0.00    +0.000 A 
ATOM     10  O   UNL     1       0.244   2.493   0.532  0.00  0.00    +0.000 OA
ATOM     11  N   UNL     1       1.613   0.714   0.162  0.00  0.00    +0.000 N 
ATOM     12  H   UNL     1       0.876  -2.090  -1.010  0.00  0.00    +0.000 HD
ATOM     13  H   UNL     1      -2.312   1.150   1.276  0.00  0.00    +0.000 HD
ATOM     14  H   UNL     1       2.417   1.275   0.252  0.00  0.00    +0.000 HD
ENDROOT
TORSDOF 0
ENDMDL
MODEL       36
REMARK  Name = 
REMARK  2 active torsions:
REMARK  status: ('A' for Active; 'I' for Inactive)
REMARK    1  A    between atoms: C_1  and  N_2
REMARK    2  A    between atoms: N_10  and  C_11
REMARK                            x       y       z     vdW  Elec       q    Type
REMARK                         _______ _______ _______ _____ _____    ______ ____
ROOT
ATOM      1  C   UNL     1      -0.006   2.772  -0.085  0.00  0.00    +0.000 C 
ATOM      2  N   UNL     1      -0.155   1.332  -0.100  0.00  0.00    +0.000 N 
ATOM      3  C   UNL     1       0.953   0.574  -0.139  0.00  0.00    +0.000 A 
ATOM      4  N   UNL     1       2.260   0.804  -0.414  0.00  0.00    +0.000 NA
ATOM      5  C   UNL     1       2.947  -0.251   0.087  0.00  0.00    +0.000 A 
ATOM      6  N   UNL     1       2.074  -1.206   0.490  0.00  0.00    +0.000 N 
ATOM      7  C   UNL     1       0.845  -0.781   0.143  0.00  0.00    +0.000 A 
ATOM      8  C   UNL     1      -0.414  -1.319   0.036  0.00  0.00    +0.000 A 
ATOM      9  O   UNL     1      -0.508  -2.565  -0.057  0.00  0.00    +0.000 OA
ATOM     10  N   UNL     1      -1.498  -0.538  -0.079  0.00  0.00    +0.000 N 
ATOM     11  C   UNL     1      -2.778  -1.060  -0.551  0.00  0.00    +0.000 C 
ATOM     12  C   UNL     1      -1.359   0.785   0.132  0.00  0.00    +0.000 A 
ATOM     13  O   UNL     1      -2.358   1.452   0.536  0.00  0.00    +0.000 OA
ATOM     14  H   UNL     1       2.296  -2.049   0.948  0.00  0.00    +0.000 HD
ENDROOT
TORSDOF 0
ENDMDL
MODEL       37
REMARK  Name = 
REMARK  19 active torsions:
REMARK  status: ('A' for Active; 'I' for Inactive)
REMARK    1  A    between atoms: C_1  and  C_2
REMARK    2  A    between atoms: C_2  and  C_23
REMARK    3  A    between atoms: C_3  and  C_4
REMARK    4  A    between atoms: C_4  and  C_5
REMARK    5  A    between atoms: C_5  and  C_6
REMARK    6  A    between atoms: C_6  and  C_7
REMARK    7  A    between atoms: C_8  and  C_9
REMARK    8  A    between atoms: C_9  and  N_10
REMARK    9  A    between atoms: N_17  and  C_18
REMARK   10  A    between atoms: N_21  and  C_22
REMARK   11  A    between atoms: C_23  and  C_24
REMARK   12  A    between atoms: C_24  and  C_25
REMARK   13  A    between atoms: C_26  and  C_27
REMARK   14  A    between atoms: C_26  and  C_28
REMARK   15  A    between atoms: C_28  and  C_29
REMARK   16  A    between atoms: C_29  and  C_31
REMARK   17  A    between atoms: C_31  and  C_32
REMARK   18  A    between atoms: C_32  and  C_33
REMARK   19  A    between atoms: C_32  and  C_34
REMARK                            x       y       z     vdW  Elec       q    Type
REMARK                         _______ _______ _______ _____ _____    ______ ____
ROOT
ATOM      5  C   UNL     1       0.361  -0.751  -1.372  0.00  0.00    +0.000 C 
ENDROOT
BRANCH   5   6
ATOM      6  C   UNL     1      -1.131  -0.780  -1.492  0.00  0.00    +0.000 C 
ATOM      7  C   UNL     1      -1.787  -1.492  -2.633  0.00  0.00    +0.000 C 
ATOM      8  C   UNL     1      -1.933  -0.442  -0.475  0.00  0.00    +0.000 C 
BRANCH   8   9
ATOM      9  C   UNL     1      -3.207   0.227  -0.833  0.00  0.00    +0.000 C 
BRANCH   9  10
ATOM     10  N   UNL     1      -4.114   0.287   0.310  0.00  0.00    +0.000 N 
ATOM     11  C   UNL     1      -4.294  -0.597   1.299  0.00  0.00    +0.000 A 
ATOM     12  N   UNL     1      -5.578  -0.558   1.732  0.00  0.00    +0.000 NA
ATOM     13  C   UNL     1      -6.247   0.368   1.003  0.00  0.00    +0.000 A 
ATOM     14  C   UNL     1      -5.277   0.978   0.239  0.00  0.00    +0.000 A 
ATOM     15  C   UNL     1      -5.613   2.185  -0.354  0.00  0.00    +0.000 A 
ATOM     16  O   UNL     1      -4.741   2.743  -1.070  0.00  0.00    +0.000 OA
ATOM     17  N   UNL     1      -6.932   2.478  -0.452  0.00  0.00    +0.000 N 
ATOM     18  C   UNL     1      -7.276   3.700  -1.138  0.00  0.00    +0.000 C 
ATOM     19  C   UNL     1      -7.878   1.632   0.004  0.00  0.00    +0.000 A 
ATOM     20  O   UNL     1      -9.015   1.648  -0.556  0.00  0.00    +0.000 OA
ATOM     21  N   UNL     1      -7.569   0.626   0.858  0.00  0.00    +0.000 N 
ATOM     22  C   UNL     1      -8.534  -0.413   1.105  0.00  0.00    +0.000 C 
ENDBRANCH   9  10
ENDBRANCH   8   9
ENDBRANCH   5   6
BRANCH   5   4
ATOM      4  C   UNL     1       0.798  -1.689  -0.272  0.00  0.00    +0.000 C 
BRANCH   4   3
ATOM      1  C   UNL     1       2.897  -0.491  -1.669  0.00  0.00    +0.000 C 
ATOM      2  C   UNL     1       2.906  -0.476  -0.190  0.00  0.00    +0.000 C 
ATOM      3  C   UNL     1       1.907  -1.059   0.479  0.00  0.00    +0.000 C 
BRANCH   2  23
ATOM     23  C   UNL     1       4.154  -0.090   0.501  0.00  0.00    +0.000 C 
BRANCH  23  24
ATOM     24  C   UNL     1       4.381  -1.039   1.663  0.00  0.00    +0.000 C 
BRANCH  24  25
ATOM     25  C   UNL     1       5.793  -1.513   1.624  0.00  0.00    +0.000 C 
ATOM     26  C   UNL     1       6.152  -2.326   0.624  0.00  0.00    +0.000 C 
ATOM     27  C   UNL     1       5.192  -3.414   0.283  0.00  0.00    +0.000 C 
BRANCH  26  28
ATOM     28  C   UNL     1       7.569  -2.431   0.220  0.00  0.00    +0.000 C 
BRANCH  28  29
ATOM     29  C   UNL     1       8.211  -1.078   0.282  0.00  0.00    +0.000 C 
ATOM     30  O   UNL     1       8.425  -0.649   1.409  0.00  0.00    +0.000 OA
BRANCH  29  31
ATOM     31  C   UNL     1       8.105  -0.220  -0.917  0.00  0.00    +0.000 C 
BRANCH  31  32
ATOM     32  C   UNL     1       8.190   1.250  -0.604  0.00  0.00    +0.000 C 
ATOM     33  C   UNL     1       9.239   1.567   0.437  0.00  0.00    +0.000 C 
ATOM     34  C   UNL     1       6.844   1.815  -0.178  0.00  0.00    +0.000 C 
ENDBRANCH  31  32
ENDBRANCH  29  31
ENDBRANCH  28  29
ENDBRANCH  26  28
ENDBRANCH  24  25
ENDBRANCH  23  24
ENDBRANCH   2  23
ENDBRANCH   4   3
ENDBRANCH   5   4
TORSDOF 12
ENDMDL
MODEL       38
REMARK  Name = 
REMARK  8 active torsions:
REMARK  status: ('A' for Active; 'I' for Inactive)
REMARK    1  A    between atoms: C_1  and  N_2
REMARK    2  A    between atoms: N_6  and  C_7
REMARK    3  A    between atoms: C_7  and  C_8
REMARK    4  A    between atoms: C_8  and  O_9
REMARK    5  A    between atoms: O_9  and  C_10
REMARK    6  A    between atoms: C_10  and  O_11
REMARK    7  A    between atoms: C_10  and  C_12
REMARK    8  A    between atoms: N_19  and  C_20
REMARK                            x       y       z     vdW  Elec       q    Type
REMARK                         _______ _______ _______ _____ _____    ______ ____
ROOT
ATOM      1  C   UNL     1      -4.883   0.794   0.016  0.00  0.00    +0.000 C 
ATOM      2  N   UNL     1      -3.892   0.322   0.036  0.00  0.00    +0.000 N 
ATOM      3  C   UNL     1      -2.790   0.968  -0.418  0.00  0.00    +0.000 A 
ATOM      4  N   UNL     1      -2.659   2.301  -0.616  0.00  0.00    +0.000 NA
ATOM      5  C   UNL     1      -1.351   2.618  -0.456  0.00  0.00    +0.000 A 
ATOM      6  N   UNL     1      -0.622   1.478  -0.367  0.00  0.00    +0.000 N 
ATOM     16  C   UNL     1      -1.508   0.457  -0.250  0.00  0.00    +0.000 A 
ATOM     17  C   UNL     1      -1.364  -0.861   0.170  0.00  0.00    +0.000 A 
ATOM     18  O   UNL     1      -0.310  -1.262   0.740  0.00  0.00    +0.000 OA
ATOM     19  N   UNL     1      -2.493  -1.570   0.420  0.00  0.00    +0.000 N 
ATOM     20  C   UNL     1      -2.384  -2.933   0.938  0.00  0.00    +0.000 C 
ATOM     21  C   UNL     1      -3.708  -0.998   0.286  0.00  0.00    +0.000 A 
ATOM     22  O   UNL     1      -4.736  -1.585   0.744  0.00  0.00    +0.000 OA
ENDROOT
BRANCH   6   7
ATOM      7  C   UNL     1       0.669   1.493   0.284  0.00  0.00    +0.000 C 
BRANCH   7   8
ATOM      8  C   UNL     1       1.660   0.835  -0.668  0.00  0.00    +0.000 C 
BRANCH   8   9
ATOM      9  O   UNL     1       2.657   0.339   0.172  0.00  0.00    +0.000 OA
BRANCH   9  10
ATOM     10  C   UNL     1       3.776  -0.010  -0.816  0.00  0.00    +0.000 C 
BRANCH  10  12
ATOM     12  C   UNL     1       4.692  -0.695   0.388  0.00  0.00    +0.000 C 
ATOM     13 CL   UNL     1       5.866  -1.720  -0.477  0.00  0.00    +0.000 Cl
ATOM     14 CL   UNL     1       5.389   0.475   1.417  0.00  0.00    +0.000 Cl
ATOM     15 CL   UNL     1       3.584  -1.827   1.220  0.00  0.00    +0.000 Cl
ENDBRANCH  10  12
BRANCH  10  11
ATOM     11  O   UNL     1       4.402   1.379  -0.650  0.00  0.00    +0.000 OA
ATOM     23  H   UNL     1       4.442   1.606   0.292  0.00  0.00    +0.000 HD
ENDBRANCH  10  11
ENDBRANCH   9  10
ENDBRANCH   8   9
ENDBRANCH   7   8
ENDBRANCH   6   7
TORSDOF 6
ENDMDL
MODEL       39
REMARK  Name = 
REMARK  2 active torsions:
REMARK  status: ('A' for Active; 'I' for Inactive)
REMARK    1  A    between atoms: C_1  and  N_2
REMARK    2  A    between atoms: N_11  and  C_12
REMARK                            x       y       z     vdW  Elec       q    Type
REMARK                         _______ _______ _______ _____ _____    ______ ____
ROOT
ATOM      1  C   UNL     1      -0.308   2.655  -0.999  0.00  0.00    +0.000 C 
ATOM      2  N   UNL     1      -0.485   1.246  -0.663  0.00  0.00    +0.000 N 
ATOM      3  C   UNL     1       0.624   0.478  -0.580  0.00  0.00    +0.000 A 
ATOM      4  N   UNL     1       1.949   0.670  -0.612  0.00  0.00    +0.000 NA
ATOM      5  C   UNL     1       2.592  -0.337   0.025  0.00  0.00    +0.000 A 
ATOM      6 BR   UNL     1       4.243  -0.230   0.990  0.00  0.00    +0.000 Br
ATOM      7  N   UNL     1       1.660  -1.302   0.185  0.00  0.00    +0.000 N 
ATOM      8  C   UNL     1       0.449  -0.834  -0.189  0.00  0.00    +0.000 A 
ATOM      9  C   UNL     1      -0.860  -1.284  -0.073  0.00  0.00    +0.000 A 
ATOM     10  O   UNL     1      -1.020  -2.511   0.210  0.00  0.00    +0.000 OA
ATOM     11  N   UNL     1      -1.805  -0.390   0.308  0.00  0.00    +0.000 N 
ATOM     12  C   UNL     1      -3.092  -0.866   0.789  0.00  0.00    +0.000 C 
ATOM     13  C   UNL     1      -1.602   0.921   0.031  0.00  0.00    +0.000 A 
ATOM     14  O   UNL     1      -2.344   1.783   0.578  0.00  0.00    +0.000 OA
ATOM     15  H   UNL     1       1.836  -2.209   0.524  0.00  0.00    +0.000 HD
ENDROOT
TORSDOF 0
ENDMDL
MODEL       40
REMARK  Name = 
REMARK  2 active torsions:
REMARK  status: ('A' for Active; 'I' for Inactive)
REMARK    1  A    between atoms: C_1  and  N_2
REMARK    2  A    between atoms: N_11  and  C_12
REMARK                            x       y       z     vdW  Elec       q    Type
REMARK                         _______ _______ _______ _____ _____    ______ ____
ROOT
ATOM      1  C   UNL     1      -0.864   2.675  -0.436  0.00  0.00    +0.000 C 
ATOM      2  N   UNL     1      -0.723   1.238  -0.326  0.00  0.00    +0.000 N 
ATOM      3  C   UNL     1       0.515   0.706  -0.443  0.00  0.00    +0.000 A 
ATOM      4  N   UNL     1       1.758   1.196  -0.315  0.00  0.00    +0.000 NA
ATOM      5  C   UNL     1       2.595   0.217   0.086  0.00  0.00    +0.000 A 
ATOM      6 CL   UNL     1       4.139   0.391   0.908  0.00  0.00    +0.000 Cl
ATOM      7  N   UNL     1       1.935  -0.948  -0.127  0.00  0.00    +0.000 N 
ATOM      8  C   UNL     1       0.633  -0.675  -0.377  0.00  0.00    +0.000 A 
ATOM      9  C   UNL     1      -0.551  -1.377  -0.307  0.00  0.00    +0.000 A 
ATOM     10  O   UNL     1      -0.504  -2.614  -0.453  0.00  0.00    +0.000 OA
ATOM     11  N   UNL     1      -1.709  -0.843   0.132  0.00  0.00    +0.000 N 
ATOM     12  C   UNL     1      -2.689  -1.594   0.901  0.00  0.00    +0.000 C 
ATOM     13  C   UNL     1      -1.778   0.511   0.113  0.00  0.00    +0.000 A 
ATOM     14  O   UNL     1      -2.757   1.117   0.643  0.00  0.00    +0.000 OA
ATOM     15  H   UNL     1       2.338  -1.846  -0.104  0.00  0.00    +0.000 HD
ENDROOT
TORSDOF 0
ENDMDL
MODEL       41
REMARK  Name = 
REMARK  19 active torsions:
REMARK  status: ('A' for Active; 'I' for Inactive)
REMARK    1  A    between atoms: C_1  and  C_2
REMARK    2  A    between atoms: C_2  and  C_23
REMARK    3  A    between atoms: C_3  and  C_4
REMARK    4  A    between atoms: C_4  and  C_5
REMARK    5  A    between atoms: C_5  and  C_6
REMARK    6  A    between atoms: C_6  and  C_7
REMARK    7  A    between atoms: C_8  and  C_9
REMARK    8  A    between atoms: C_9  and  N_10
REMARK    9  A    between atoms: N_17  and  C_18
REMARK   10  A    between atoms: N_21  and  C_22
REMARK   11  A    between atoms: C_23  and  C_24
REMARK   12  A    between atoms: C_24  and  C_25
REMARK   13  A    between atoms: C_25  and  C_26
REMARK   14  A    between atoms: C_26  and  C_27
REMARK   15  A    between atoms: C_28  and  C_29
REMARK   16  A    between atoms: C_29  and  C_31
REMARK   17  A    between atoms: C_31  and  C_32
REMARK   18  A    between atoms: C_32  and  C_33
REMARK   19  A    between atoms: C_32  and  C_34
REMARK                            x       y       z     vdW  Elec       q    Type
REMARK                         _______ _______ _______ _____ _____    ______ ____
ROOT
ATOM      5  C   UNL     1       0.370   1.344   0.679  0.00  0.00    +0.000 C 
ENDROOT
BRANCH   5   6
ATOM      6  C   UNL     1      -1.072   1.291   0.345  0.00  0.00    +0.000 C 
ATOM      7  C   UNL     1      -1.498   0.481  -0.843  0.00  0.00    +0.000 C 
ATOM      8  C   UNL     1      -2.043   1.762   1.103  0.00  0.00    +0.000 C 
BRANCH   8   9
ATOM      9  C   UNL     1      -3.259   0.962   1.387  0.00  0.00    +0.000 C 
BRANCH   9  10
ATOM     10  N   UNL     1      -4.322   1.184   0.445  0.00  0.00    +0.000 N 
ATOM     11  C   UNL     1      -4.425   1.994  -0.612  0.00  0.00    +0.000 A 
ATOM     12  N   UNL     1      -5.135   1.339  -1.563  0.00  0.00    +0.000 NA
ATOM     13  C   UNL     1      -5.849   0.353  -0.968  0.00  0.00    +0.000 A 
ATOM     14  C   UNL     1      -5.381   0.344   0.340  0.00  0.00    +0.000 A 
ATOM     15  C   UNL     1      -6.132  -0.388   1.245  0.00  0.00    +0.000 A 
ATOM     16  O   UNL     1      -5.711  -0.426   2.440  0.00  0.00    +0.000 OA
ATOM     17  N   UNL     1      -7.053  -1.256   0.789  0.00  0.00    +0.000 N 
ATOM     18  C   UNL     1      -7.408  -2.353   1.682  0.00  0.00    +0.000 C 
ATOM     19  C   UNL     1      -7.056  -1.541  -0.536  0.00  0.00    +0.000 A 
ATOM     20  O   UNL     1      -7.980  -2.321  -0.920  0.00  0.00    +0.000 OA
ATOM     21  N   UNL     1      -6.661  -0.620  -1.449  0.00  0.00    +0.000 N 
ATOM     22  C   UNL     1      -6.465  -1.096  -2.815  0.00  0.00    +0.000 C 
ENDBRANCH   9  10
ENDBRANCH   8   9
ENDBRANCH   5   6
BRANCH   5   4
ATOM      4  C   UNL     1       1.215   1.580  -0.541  0.00  0.00    +0.000 C 
BRANCH   4   3
ATOM      1  C   UNL     1       1.637  -0.723   1.134  0.00  0.00    +0.000 C 
ATOM      2  C   UNL     1       2.248  -0.658  -0.232  0.00  0.00    +0.000 C 
ATOM      3  C   UNL     1       1.965   0.388  -0.983  0.00  0.00    +0.000 C 
BRANCH   2  23
ATOM     23  C   UNL     1       3.608  -1.278  -0.364  0.00  0.00    +0.000 C 
BRANCH  23  24
ATOM     24  C   UNL     1       4.494  -0.540   0.633  0.00  0.00    +0.000 C 
BRANCH  24  25
ATOM     25  C   UNL     1       4.561   0.897   0.197  0.00  0.00    +0.000 C 
BRANCH  25  26
ATOM     26  C   UNL     1       5.614   1.661   0.925  0.00  0.00    +0.000 C 
ATOM     27  C   UNL     1       5.308   3.094   1.229  0.00  0.00    +0.000 C 
ATOM     28  C   UNL     1       6.892   1.395   0.659  0.00  0.00    +0.000 C 
BRANCH  28  29
ATOM     29  C   UNL     1       7.294   0.284  -0.209  0.00  0.00    +0.000 C 
ATOM     30  O   UNL     1       7.742   0.608  -1.350  0.00  0.00    +0.000 OA
BRANCH  29  31
ATOM     31  C   UNL     1       7.801  -0.936   0.492  0.00  0.00    +0.000 C 
BRANCH  31  32
ATOM     32  C   UNL     1       8.821  -1.679  -0.328  0.00  0.00    +0.000 C 
ATOM     33  C   UNL     1       8.130  -2.763  -1.137  0.00  0.00    +0.000 C 
ATOM     34  C   UNL     1       9.750  -2.385   0.653  0.00  0.00    +0.000 C 
ENDBRANCH  31  32
ENDBRANCH  29  31
ENDBRANCH  28  29
ENDBRANCH  25  26
ENDBRANCH  24  25
ENDBRANCH  23  24
ENDBRANCH   2  23
ENDBRANCH   4   3
ENDBRANCH   5   4
TORSDOF 12
ENDMDL
