MODEL        1
REMARK  Name = 
REMARK  4 active torsions:
REMARK  status: ('A' for Active; 'I' for Inactive)
REMARK    1  A    between atoms: C_1  and  N_2
REMARK    2  A    between atoms: N_6  and  C_7
REMARK    3  A    between atoms: C_7  and  C_8
REMARK    4  A    between atoms: N_13  and  C_14
REMARK                            x       y       z     vdW  Elec       q    Type
REMARK                         _______ _______ _______ _____ _____    ______ ____
ROOT
ATOM      1  C   UNL     1      -2.341   2.295  -1.109  0.00  0.00    +0.000 C 
ATOM      2  N   UNL     1      -1.762   0.987  -0.811  0.00  0.00    +0.000 N 
ATOM      3  C   UNL     1      -0.411   0.914  -0.893  0.00  0.00    +0.000 A 
ATOM      4  N   UNL     1       0.498   1.557  -1.664  0.00  0.00    +0.000 NA
ATOM      5  C   UNL     1       1.736   1.122  -1.329  0.00  0.00    +0.000 A 
ATOM      6  N   UNL     1       1.641   0.296  -0.280  0.00  0.00    +0.000 N 
ATOM     10  C   UNL     1       0.328  -0.039  -0.217  0.00  0.00    +0.000 A 
ATOM     11  C   UNL     1      -0.383  -1.023   0.436  0.00  0.00    +0.000 A 
ATOM     12  O   UNL     1       0.275  -1.768   1.216  0.00  0.00    +0.000 OA
ATOM     13  N   UNL     1      -1.718  -0.879   0.573  0.00  0.00    +0.000 N 
ATOM     14  C   UNL     1      -2.353  -1.803   1.506  0.00  0.00    +0.000 C 
ATOM     15  C   UNL     1      -2.332   0.267   0.185  0.00  0.00    +0.000 A 
ATOM     16  O   UNL     1      -3.442   0.598   0.695  0.00  0.00    +0.000 OA
ENDROOT
BRANCH   6   7
ATOM      7  C   UNL     1       2.556   0.137   0.848  0.00  0.00    +0.000 C 
BRANCH   7   8
ATOM      8  C   UNL     1       3.857  -0.441   0.354  0.00  0.00    +0.000 C 
ATOM      9 CL   UNL     1       3.849  -2.220   0.490  0.00  0.00    +0.000 Cl
ENDBRANCH   7   8
ENDBRANCH   6   7
TORSDOF 2
ENDMDL
MODEL        2
REMARK  Name = 
REMARK  3 active torsions:
REMARK  status: ('A' for Active; 'I' for Inactive)
REMARK    1  A    between atoms: C_1  and  N_2
REMARK    2  A    between atoms: N_9  and  C_10
REMARK    3  A    between atoms: N_13  and  C_14
REMARK                            x       y       z     vdW  Elec       q    Type
REMARK                         _______ _______ _______ _____ _____    ______ ____
ROOT
ATOM      1  C   UNL     1       2.874  -1.537   0.602  0.00  0.00    +0.000 C 
ATOM      2  N   UNL     1       2.164  -0.466  -0.086  0.00  0.00    +0.000 N 
ATOM      3  C   UNL     1       2.624   0.752  -0.425  0.00  0.00    +0.000 A 
ATOM      4  N   UNL     1       1.645   1.671  -0.244  0.00  0.00    +0.000 NA
ATOM      5  C   UNL     1       0.486   0.971  -0.183  0.00  0.00    +0.000 A 
ATOM      6  C   UNL     1       0.827  -0.376  -0.152  0.00  0.00    +0.000 A 
ATOM      7  C   UNL     1      -0.207  -1.300  -0.155  0.00  0.00    +0.000 A 
ATOM      8  O   UNL     1       0.025  -2.441   0.318  0.00  0.00    +0.000 OA
ATOM      9  N   UNL     1      -1.484  -0.852  -0.085  0.00  0.00    +0.000 N 
ATOM     10  C   UNL     1      -2.489  -1.778  -0.598  0.00  0.00    +0.000 C 
ATOM     11  C   UNL     1      -1.751   0.474  -0.010  0.00  0.00    +0.000 A 
ATOM     12  O   UNL     1      -2.948   0.875   0.001  0.00  0.00    +0.000 OA
ATOM     13  N   UNL     1      -0.765   1.392   0.130  0.00  0.00    +0.000 N 
ATOM     14  C   UNL     1      -1.000   2.616   0.886  0.00  0.00    +0.000 C 
ENDROOT
TORSDOF 0
ENDMDL
MODEL        3
REMARK  Name = 
REMARK  6 active torsions:
REMARK  status: ('A' for Active; 'I' for Inactive)
REMARK    1  A    between atoms: C_1  and  C_2
REMARK    2  A    between atoms: C_2  and  C_3
REMARK    3  A    between atoms: C_2  and  C_4
REMARK    4  A    between atoms: C_4  and  N_5
REMARK    5  A    between atoms: N_12  and  C_13
REMARK    6  A    between atoms: N_16  and  C_17
REMARK                            x       y       z     vdW  Elec       q    Type
REMARK                         _______ _______ _______ _____ _____    ______ ____
ROOT
ATOM      5  N   UNL     1       1.248  -0.753  -0.222  0.00  0.00    +0.000 N 
ATOM      6  C   UNL     1       1.230  -1.786   0.621  0.00  0.00    +0.000 A 
ATOM      7  N   UNL     1      -0.034  -2.099   0.930  0.00  0.00    +0.000 NA
ATOM      8  C   UNL     1      -0.816  -1.123   0.417  0.00  0.00    +0.000 A 
ATOM      9  C   UNL     1      -0.029  -0.335  -0.409  0.00  0.00    +0.000 A 
ATOM     10  C   UNL     1      -0.620   0.741  -1.044  0.00  0.00    +0.000 A 
ATOM     11  O   UNL     1       0.012   1.256  -2.009  0.00  0.00    +0.000 OA
ATOM     12  N   UNL     1      -1.755   1.316  -0.580  0.00  0.00    +0.000 N 
ATOM     13  C   UNL     1      -2.006   2.721  -0.828  0.00  0.00    +0.000 C 
ATOM     14  C   UNL     1      -2.426   0.602   0.352  0.00  0.00    +0.000 A 
ATOM     15  O   UNL     1      -3.279   1.197   1.078  0.00  0.00    +0.000 OA
ATOM     16  N   UNL     1      -2.062  -0.670   0.641  0.00  0.00    +0.000 N 
ATOM     17  C   UNL     1      -2.988  -1.520   1.376  0.00  0.00    +0.000 C 
ENDROOT
BRANCH   5   4
ATOM      4  C   UNL     1       2.360  -0.322  -1.021  0.00  0.00    +0.000 C 
BRANCH   4   2
ATOM      1  C   UNL     1       4.634  -0.622   0.009  0.00  0.00    +0.000 C 
ATOM      2  C   UNL     1       3.479   0.298  -0.252  0.00  0.00    +0.000 C 
ATOM      3  C   UNL     1       3.052   1.095   0.942  0.00  0.00    +0.000 C 
ENDBRANCH   4   2
ENDBRANCH   5   4
TORSDOF 2
ENDMDL
MODEL        4
REMARK  Name = 
REMARK  4 active torsions:
REMARK  status: ('A' for Active; 'I' for Inactive)
REMARK    1  A    between atoms: C_1  and  N_2
REMARK    2  A    between atoms: N_6  and  C_7
REMARK    3  A    between atoms: C_7  and  C_8
REMARK    4  A    between atoms: N_13  and  C_14
REMARK                            x       y       z     vdW  Elec       q    Type
REMARK                         _______ _______ _______ _____ _____    ______ ____
ROOT
ATOM      1  C   UNL     1      -2.531  -2.056  -1.074  0.00  0.00    +0.000 C 
ATOM      2  N   UNL     1      -1.872  -1.060  -0.246  0.00  0.00    +0.000 N 
ATOM      3  C   UNL     1      -0.608  -1.218   0.216  0.00  0.00    +0.000 A 
ATOM      4  N   UNL     1       0.168  -2.313   0.303  0.00  0.00    +0.000 NA
ATOM      5  C   UNL     1       1.459  -1.931   0.456  0.00  0.00    +0.000 A 
ATOM      6  N   UNL     1       1.557  -0.624   0.145  0.00  0.00    +0.000 N 
ATOM     10  C   UNL     1       0.287  -0.158   0.218  0.00  0.00    +0.000 A 
ATOM     11  C   UNL     1      -0.244   1.106   0.240  0.00  0.00    +0.000 A 
ATOM     12  O   UNL     1       0.544   2.083   0.135  0.00  0.00    +0.000 OA
ATOM     13  N   UNL     1      -1.583   1.240   0.136  0.00  0.00    +0.000 N 
ATOM     14  C   UNL     1      -2.082   2.610   0.154  0.00  0.00    +0.000 C 
ATOM     15  C   UNL     1      -2.321   0.215  -0.337  0.00  0.00    +0.000 A 
ATOM     16  O   UNL     1      -3.462   0.476  -0.818  0.00  0.00    +0.000 OA
ENDROOT
BRANCH   6   7
ATOM      7  C   UNL     1       2.655   0.050  -0.546  0.00  0.00    +0.000 C 
BRANCH   7   8
ATOM      8  C   UNL     1       3.631   0.491   0.433  0.00  0.00    +0.000 C 
ATOM      9  N   UNL     1       4.402   1.087   1.047  0.00  0.00    +0.000 NA
ENDBRANCH   7   8
ENDBRANCH   6   7
TORSDOF 2
ENDMDL
MODEL        5
REMARK  Name = 
REMARK  4 active torsions:
REMARK  status: ('A' for Active; 'I' for Inactive)
REMARK    1  A    between atoms: C_1  and  C_2
REMARK    2  A    between atoms: C_2  and  N_3
REMARK    3  A    between atoms: N_11  and  C_12
REMARK    4  A    between atoms: N_15  and  C_16
REMARK                            x       y       z     vdW  Elec       q    Type
REMARK                         _______ _______ _______ _____ _____    ______ ____
ROOT
ATOM      3  N   UNL     1       1.739  -0.149  -0.077  0.00  0.00    +0.000 N 
ATOM      4  C   UNL     1       2.127   1.116  -0.288  0.00  0.00    +0.000 A 
ATOM      5 CL   UNL     1       3.657   1.778   0.281  0.00  0.00    +0.000 Cl
ATOM      6  N   UNL     1       1.013   1.817  -0.610  0.00  0.00    +0.000 NA
ATOM      7  C   UNL     1      -0.057   0.990  -0.515  0.00  0.00    +0.000 A 
ATOM      8  C   UNL     1       0.393  -0.246  -0.066  0.00  0.00    +0.000 A 
ATOM      9  C   UNL     1      -0.476  -1.159   0.520  0.00  0.00    +0.000 A 
ATOM     10  O   UNL     1      -0.019  -2.059   1.284  0.00  0.00    +0.000 OA
ATOM     11  N   UNL     1      -1.793  -0.949   0.415  0.00  0.00    +0.000 N 
ATOM     12  C   UNL     1      -2.702  -2.075   0.607  0.00  0.00    +0.000 C 
ATOM     13  C   UNL     1      -2.216   0.240  -0.029  0.00  0.00    +0.000 A 
ATOM     14  O   UNL     1      -3.471   0.418  -0.044  0.00  0.00    +0.000 OA
ATOM     15  N   UNL     1      -1.362   1.257  -0.269  0.00  0.00    +0.000 N 
ATOM     16  C   UNL     1      -1.898   2.593  -0.264  0.00  0.00    +0.000 C 
ENDROOT
BRANCH   3   2
ATOM      1  C   UNL     1       2.456  -2.287  -1.030  0.00  0.00    +0.000 C 
ATOM      2  C   UNL     1       2.611  -1.284   0.084  0.00  0.00    +0.000 C 
ENDBRANCH   3   2
TORSDOF 1
ENDMDL
MODEL        6
REMARK  Name = 
REMARK  4 active torsions:
REMARK  status: ('A' for Active; 'I' for Inactive)
REMARK    1  A    between atoms: C_1  and  N_2
REMARK    2  A    between atoms: N_6  and  C_7
REMARK    3  A    between atoms: C_7  and  C_8
REMARK    4  A    between atoms: N_14  and  C_15
REMARK                            x       y       z     vdW  Elec       q    Type
REMARK                         _______ _______ _______ _____ _____    ______ ____
ROOT
ATOM      1  C   UNL     1      -2.419  -2.202   1.198  0.00  0.00    +0.000 C 
ATOM      2  N   UNL     1      -1.878  -1.134   0.365  0.00  0.00    +0.000 N 
ATOM      3  C   UNL     1      -0.620  -1.253  -0.111  0.00  0.00    +0.000 A 
ATOM      4  N   UNL     1       0.374  -2.155   0.001  0.00  0.00    +0.000 NA
ATOM      5  C   UNL     1       1.540  -1.466  -0.057  0.00  0.00    +0.000 A 
ATOM      6  N   UNL     1       1.334  -0.231  -0.526  0.00  0.00    +0.000 N 
ATOM     11  C   UNL     1      -0.010  -0.143  -0.684  0.00  0.00    +0.000 A 
ATOM     12  C   UNL     1      -0.874   0.894  -1.015  0.00  0.00    +0.000 A 
ATOM     13  O   UNL     1      -0.359   1.861  -1.653  0.00  0.00    +0.000 OA
ATOM     14  N   UNL     1      -2.069   1.060  -0.396  0.00  0.00    +0.000 N 
ATOM     15  C   UNL     1      -2.630   2.392  -0.184  0.00  0.00    +0.000 C 
ATOM     16  C   UNL     1      -2.534   0.052   0.382  0.00  0.00    +0.000 A 
ATOM     17  O   UNL     1      -3.234   0.331   1.402  0.00  0.00    +0.000 OA
ENDROOT
BRANCH   6   7
ATOM      7  C   UNL     1       2.278   0.883  -0.583  0.00  0.00    +0.000 C 
BRANCH   7   8
ATOM      8  C   UNL     1       3.432   0.610   0.330  0.00  0.00    +0.000 C 
ATOM      9  N   UNL     1       4.178  -0.576   0.031  0.00  0.00    +0.000 N 
ATOM     10  O   UNL     1       3.492   1.076   1.500  0.00  0.00    +0.000 OA
ATOM     18  H   UNL     1       4.149  -0.961  -0.875  0.00  0.00    +0.000 HD
ATOM     19  H   UNL     1       4.721  -1.005   0.731  0.00  0.00    +0.000 HD
ENDBRANCH   7   8
ENDBRANCH   6   7
TORSDOF 2
ENDMDL
MODEL        7
REMARK  Name = 
REMARK  5 active torsions:
REMARK  status: ('A' for Active; 'I' for Inactive)
REMARK    1  A    between atoms: C_1  and  N_2
REMARK    2  A    between atoms: N_6  and  C_7
REMARK    3  A    between atoms: C_7  and  C_8
REMARK    4  A    between atoms: C_8  and  N_9
REMARK    5  A    between atoms: N_13  and  C_14
REMARK                            x       y       z     vdW  Elec       q    Type
REMARK                         _______ _______ _______ _____ _____    ______ ____
ROOT
ATOM      1  C   UNL     1      -2.208  -2.149   0.972  0.00  0.00    +0.000 C 
ATOM      2  N   UNL     1      -1.701  -1.028   0.185  0.00  0.00    +0.000 N 
ATOM      3  C   UNL     1      -0.544  -1.163  -0.510  0.00  0.00    +0.000 A 
ATOM      4  N   UNL     1       0.211  -2.227  -0.882  0.00  0.00    +0.000 NA
ATOM      5  C   UNL     1       1.513  -1.849  -0.846  0.00  0.00    +0.000 A 
ATOM      6  N   UNL     1       1.554  -0.500  -0.938  0.00  0.00    +0.000 N 
ATOM     10  C   UNL     1       0.278  -0.074  -0.777  0.00  0.00    +0.000 A 
ATOM     11  C   UNL     1      -0.310   1.162  -0.652  0.00  0.00    +0.000 A 
ATOM     12  O   UNL     1       0.411   2.181  -0.867  0.00  0.00    +0.000 OA
ATOM     13  N   UNL     1      -1.495   1.264  -0.005  0.00  0.00    +0.000 N 
ATOM     14  C   UNL     1      -2.099   2.550   0.204  0.00  0.00    +0.000 C 
ATOM     15  C   UNL     1      -2.071   0.205   0.614  0.00  0.00    +0.000 A 
ATOM     16  O   UNL     1      -2.602   0.347   1.757  0.00  0.00    +0.000 OA
ENDROOT
BRANCH   6   7
ATOM      7  C   UNL     1       2.732   0.300  -0.650  0.00  0.00    +0.000 C 
BRANCH   7   8
ATOM      8  C   UNL     1       3.320  -0.030   0.710  0.00  0.00    +0.000 C 
BRANCH   8   9
ATOM      9  N   UNL     1       3.011   1.011   1.685  0.00  0.00    +0.000 NA
ATOM     17  H   UNL     1       3.412   1.896   1.376  0.00  0.00    +0.000 HD
ATOM     18  H   UNL     1       3.405   0.757   2.591  0.00  0.00    +0.000 HD
ENDBRANCH   8   9
ENDBRANCH   7   8
ENDBRANCH   6   7
TORSDOF 3
ENDMDL
MODEL        8
REMARK  Name = 
REMARK  6 active torsions:
REMARK  status: ('A' for Active; 'I' for Inactive)
REMARK    1  A    between atoms: C_1  and  C_2
REMARK    2  A    between atoms: C_2  and  O_3
REMARK    3  A    between atoms: C_2  and  C_4
REMARK    4  A    between atoms: C_4  and  N_5
REMARK    5  A    between atoms: N_12  and  C_13
REMARK    6  A    between atoms: N_16  and  C_17
REMARK                            x       y       z     vdW  Elec       q    Type
REMARK                         _______ _______ _______ _____ _____    ______ ____
ROOT
ATOM      5  N   UNL     1       1.252  -0.332  -1.046  0.00  0.00    +0.000 N 
ATOM      6  C   UNL     1       1.288   0.738  -1.842  0.00  0.00    +0.000 A 
ATOM      7  N   UNL     1       0.108   1.401  -1.810  0.00  0.00    +0.000 NA
ATOM      8  C   UNL     1      -0.644   0.855  -0.838  0.00  0.00    +0.000 A 
ATOM      9  C   UNL     1      -0.017  -0.356  -0.569  0.00  0.00    +0.000 A 
ATOM     10  C   UNL     1      -0.803  -1.320   0.050  0.00  0.00    +0.000 A 
ATOM     11  O   UNL     1      -0.264  -2.417   0.356  0.00  0.00    +0.000 OA
ATOM     12  N   UNL     1      -1.876  -0.901   0.761  0.00  0.00    +0.000 N 
ATOM     13  C   UNL     1      -2.749  -1.867   1.380  0.00  0.00    +0.000 C 
ATOM     14  C   UNL     1      -2.187   0.414   0.833  0.00  0.00    +0.000 A 
ATOM     15  O   UNL     1      -2.778   0.833   1.871  0.00  0.00    +0.000 OA
ATOM     16  N   UNL     1      -1.693   1.274  -0.086  0.00  0.00    +0.000 N 
ATOM     17  C   UNL     1      -1.936   2.683   0.026  0.00  0.00    +0.000 C 
ENDROOT
BRANCH   5   4
ATOM      4  C   UNL     1       2.261  -1.156  -0.466  0.00  0.00    +0.000 C 
BRANCH   4   2
ATOM      1  C   UNL     1       3.716  -0.702   1.372  0.00  0.00    +0.000 C 
ATOM      2  C   UNL     1       3.590  -0.176  -0.213  0.00  0.00    +0.000 C 
BRANCH   2   3
ATOM      3  O   UNL     1       2.732   1.028   0.221  0.00  0.00    +0.000 OA
ATOM     18  H   UNL     1       2.053   0.732   0.847  0.00  0.00    +0.000 HD
ENDBRANCH   2   3
ENDBRANCH   4   2
ENDBRANCH   5   4
TORSDOF 3
ENDMDL
MODEL        9
REMARK  Name = 
REMARK  6 active torsions:
REMARK  status: ('A' for Active; 'I' for Inactive)
REMARK    1  A    between atoms: C_1  and  C_2
REMARK    2  A    between atoms: C_2  and  O_3
REMARK    3  A    between atoms: C_2  and  C_4
REMARK    4  A    between atoms: C_4  and  N_5
REMARK    5  A    between atoms: N_12  and  C_13
REMARK    6  A    between atoms: N_16  and  C_17
REMARK                            x       y       z     vdW  Elec       q    Type
REMARK                         _______ _______ _______ _____ _____    ______ ____
ROOT
ATOM      5  N   UNL     1       1.374  -0.174   0.262  0.00  0.00    +0.000 N 
ATOM      6  C   UNL     1       1.465  -1.515   0.207  0.00  0.00    +0.000 A 
ATOM      7  N   UNL     1       0.266  -2.087   0.331  0.00  0.00    +0.000 NA
ATOM      8  C   UNL     1      -0.653  -1.122   0.348  0.00  0.00    +0.000 A 
ATOM      9  C   UNL     1       0.046   0.066   0.366  0.00  0.00    +0.000 A 
ATOM     10  C   UNL     1      -0.716   1.212   0.558  0.00  0.00    +0.000 A 
ATOM     11  O   UNL     1      -0.100   2.301   0.425  0.00  0.00    +0.000 OA
ATOM     12  N   UNL     1      -2.068   1.131   0.497  0.00  0.00    +0.000 N 
ATOM     13  C   UNL     1      -2.827   2.355   0.284  0.00  0.00    +0.000 C 
ATOM     14  C   UNL     1      -2.681  -0.033   0.220  0.00  0.00    +0.000 A 
ATOM     15  O   UNL     1      -3.943  -0.133   0.221  0.00  0.00    +0.000 OA
ATOM     16  N   UNL     1      -1.994  -1.182   0.251  0.00  0.00    +0.000 N 
ATOM     17  C   UNL     1      -2.671  -2.437   0.053  0.00  0.00    +0.000 C 
ENDROOT
BRANCH   5   4
ATOM      4  C   UNL     1       2.270   0.712  -0.478  0.00  0.00    +0.000 C 
BRANCH   4   2
ATOM      1  C   UNL     1       4.036  -0.926  -0.443  0.00  0.00    +0.000 C 
ATOM      2  C   UNL     1       3.706   0.506   0.374  0.00  0.00    +0.000 C 
BRANCH   2   3
ATOM      3  O   UNL     1       4.489   1.325  -0.680  0.00  0.00    +0.000 OA
ATOM     18  H   UNL     1       4.236   1.032  -1.570  0.00  0.00    +0.000 HD
ENDBRANCH   2   3
ENDBRANCH   4   2
ENDBRANCH   5   4
TORSDOF 3
ENDMDL
MODEL       10
REMARK  Name = 
REMARK  5 active torsions:
REMARK  status: ('A' for Active; 'I' for Inactive)
REMARK    1  A    between atoms: C_1  and  N_2
REMARK    2  A    between atoms: N_6  and  C_7
REMARK    3  A    between atoms: C_7  and  C_8
REMARK    4  A    between atoms: C_8  and  O_9
REMARK    5  A    between atoms: N_13  and  C_14
REMARK                            x       y       z     vdW  Elec       q    Type
REMARK                         _______ _______ _______ _____ _____    ______ ____
ROOT
ATOM      1  C   UNL     1      -2.475  -2.273  -0.572  0.00  0.00    +0.000 C 
ATOM      2  N   UNL     1      -1.716  -1.026  -0.531  0.00  0.00    +0.000 N 
ATOM      3  C   UNL     1      -0.377  -1.152  -0.364  0.00  0.00    +0.000 A 
ATOM      4  N   UNL     1       0.465  -2.169  -0.104  0.00  0.00    +0.000 NA
ATOM      5  C   UNL     1       1.681  -1.623   0.137  0.00  0.00    +0.000 A 
ATOM      6  N   UNL     1       1.586  -0.271   0.135  0.00  0.00    +0.000 N 
ATOM     10  C   UNL     1       0.301   0.043  -0.160  0.00  0.00    +0.000 A 
ATOM     11  C   UNL     1      -0.389   1.194   0.201  0.00  0.00    +0.000 A 
ATOM     12  O   UNL     1       0.226   2.152   0.759  0.00  0.00    +0.000 OA
ATOM     13  N   UNL     1      -1.736   1.217   0.058  0.00  0.00    +0.000 N 
ATOM     14  C   UNL     1      -2.408   2.398   0.592  0.00  0.00    +0.000 C 
ATOM     15  C   UNL     1      -2.403   0.055  -0.122  0.00  0.00    +0.000 A 
ATOM     16  O   UNL     1      -3.581  -0.011   0.342  0.00  0.00    +0.000 OA
ENDROOT
BRANCH   6   7
ATOM      7  C   UNL     1       2.662   0.686  -0.108  0.00  0.00    +0.000 C 
BRANCH   7   8
ATOM      8  C   UNL     1       3.556   0.833   1.097  0.00  0.00    +0.000 C 
BRANCH   8   9
ATOM      9  O   UNL     1       4.607  -0.054   0.948  0.00  0.00    +0.000 OA
ATOM     17  H   UNL     1       4.260  -0.957   0.877  0.00  0.00    +0.000 HD
ENDBRANCH   8   9
ENDBRANCH   7   8
ENDBRANCH   6   7
TORSDOF 3
ENDMDL
MODEL       11
REMARK  Name = 
REMARK  5 active torsions:
REMARK  status: ('A' for Active; 'I' for Inactive)
REMARK    1  A    between atoms: C_1  and  N_2
REMARK    2  A    between atoms: N_6  and  C_7
REMARK    3  A    between atoms: C_7  and  C_8
REMARK    4  A    between atoms: C_8  and  O_10
REMARK    5  A    between atoms: N_14  and  C_15
REMARK                            x       y       z     vdW  Elec       q    Type
REMARK                         _______ _______ _______ _____ _____    ______ ____
ROOT
ATOM      1  C   UNL     1      -2.683   2.313   0.524  0.00  0.00    +0.000 C 
ATOM      2  N   UNL     1      -1.966   1.097   0.203  0.00  0.00    +0.000 N 
ATOM      3  C   UNL     1      -0.629   1.110  -0.020  0.00  0.00    +0.000 A 
ATOM      4  N   UNL     1       0.307   2.082  -0.008  0.00  0.00    +0.000 NA
ATOM      5  C   UNL     1       1.481   1.452   0.240  0.00  0.00    +0.000 A 
ATOM      6  N   UNL     1       1.337   0.152  -0.062  0.00  0.00    +0.000 N 
ATOM     11  C   UNL     1       0.013  -0.111  -0.181  0.00  0.00    +0.000 A 
ATOM     12  C   UNL     1      -0.738  -1.232   0.152  0.00  0.00    +0.000 A 
ATOM     13  O   UNL     1      -0.207  -2.344   0.393  0.00  0.00    +0.000 OA
ATOM     14  N   UNL     1      -2.049  -1.204  -0.189  0.00  0.00    +0.000 N 
ATOM     15  C   UNL     1      -2.699  -2.357  -0.812  0.00  0.00    +0.000 C 
ATOM     16  C   UNL     1      -2.695  -0.025  -0.013  0.00  0.00    +0.000 A 
ATOM     17  O   UNL     1      -3.868   0.112  -0.426  0.00  0.00    +0.000 OA
ENDROOT
BRANCH   6   7
ATOM      7  C   UNL     1       2.351  -0.890  -0.167  0.00  0.00    +0.000 C 
BRANCH   7   8
ATOM      8  C   UNL     1       3.624  -0.266  -0.609  0.00  0.00    +0.000 C 
ATOM      9  O   UNL     1       4.648  -0.986  -0.808  0.00  0.00    +0.000 OA
BRANCH   8  10
ATOM     10  O   UNL     1       3.771   1.096  -0.825  0.00  0.00    +0.000 OA
ATOM     18  H   UNL     1       3.045   1.673  -0.691  0.00  0.00    +0.000 HD
ENDBRANCH   8  10
ENDBRANCH   7   8
ENDBRANCH   6   7
TORSDOF 3
ENDMDL
MODEL       12
REMARK  Name = 
REMARK  5 active torsions:
REMARK  status: ('A' for Active; 'I' for Inactive)
REMARK    1  A    between atoms: C_1  and  C_2
REMARK    2  A    between atoms: C_2  and  C_3
REMARK    3  A    between atoms: C_3  and  N_4
REMARK    4  A    between atoms: N_12  and  C_13
REMARK    5  A    between atoms: N_16  and  C_17
REMARK                            x       y       z     vdW  Elec       q    Type
REMARK                         _______ _______ _______ _____ _____    ______ ____
ROOT
ATOM      4  N   UNL     1       1.391  -0.239  -0.308  0.00  0.00    +0.000 N 
ATOM      5  C   UNL     1       1.446  -1.593  -0.306  0.00  0.00    +0.000 A 
ATOM      6  N   UNL     1       2.683  -2.298  -0.140  0.00  0.00    +0.000 N 
ATOM      7  N   UNL     1       0.195  -2.102  -0.225  0.00  0.00    +0.000 NA
ATOM      8  C   UNL     1      -0.650  -1.052  -0.077  0.00  0.00    +0.000 A 
ATOM      9  C   UNL     1       0.074   0.047  -0.451  0.00  0.00    +0.000 A 
ATOM     10  C   UNL     1      -0.548   1.282  -0.331  0.00  0.00    +0.000 A 
ATOM     11  O   UNL     1       0.140   2.319  -0.516  0.00  0.00    +0.000 OA
ATOM     12  N   UNL     1      -1.807   1.385   0.108  0.00  0.00    +0.000 N 
ATOM     13  C   UNL     1      -2.349   2.707   0.407  0.00  0.00    +0.000 C 
ATOM     14  C   UNL     1      -2.508   0.256   0.342  0.00  0.00    +0.000 A 
ATOM     15  O   UNL     1      -3.761   0.341   0.375  0.00  0.00    +0.000 OA
ATOM     16  N   UNL     1      -1.906  -0.936   0.373  0.00  0.00    +0.000 N 
ATOM     17  C   UNL     1      -2.518  -2.004   1.145  0.00  0.00    +0.000 C 
ATOM     18  H   UNL     1       3.538  -1.818  -0.222  0.00  0.00    +0.000 HD
ATOM     19  H   UNL     1       2.676  -3.263   0.057  0.00  0.00    +0.000 HD
ENDROOT
BRANCH   4   3
ATOM      3  C   UNL     1       2.408   0.577  -0.966  0.00  0.00    +0.000 C 
BRANCH   3   2
ATOM      1  C   UNL     1       3.930   0.979   0.970  0.00  0.00    +0.000 C 
ATOM      2  C   UNL     1       3.780   0.332  -0.401  0.00  0.00    +0.000 C 
ENDBRANCH   3   2
ENDBRANCH   4   3
TORSDOF 2
ENDMDL
MODEL       13
REMARK  Name = 
REMARK  5 active torsions:
REMARK  status: ('A' for Active; 'I' for Inactive)
REMARK    1  A    between atoms: C_1  and  N_2
REMARK    2  A    between atoms: N_2  and  C_3
REMARK    3  A    between atoms: N_10  and  C_11
REMARK    4  A    between atoms: N_14  and  C_15
REMARK    5  A    between atoms: N_16  and  C_17
REMARK                            x       y       z     vdW  Elec       q    Type
REMARK                         _______ _______ _______ _____ _____    ______ ____
ROOT
ATOM      1  C   UNL     1      -4.100  -1.285  -0.030  0.00  0.00    +0.000 C 
ATOM      2  N   UNL     1      -3.284  -0.087   0.155  0.00  0.00    +0.000 N 
ATOM      3  C   UNL     1      -3.634   0.722   1.319  0.00  0.00    +0.000 C 
ATOM      4  C   UNL     1      -1.947  -0.115  -0.356  0.00  0.00    +0.000 A 
ATOM      5  N   UNL     1      -1.169  -1.146  -0.674  0.00  0.00    +0.000 NA
ATOM      6  C   UNL     1       0.130  -0.767  -0.600  0.00  0.00    +0.000 A 
ATOM      7  C   UNL     1       0.151   0.607  -0.413  0.00  0.00    +0.000 A 
ATOM      8  C   UNL     1       1.306   1.251   0.013  0.00  0.00    +0.000 A 
ATOM      9  O   UNL     1       1.342   2.507   0.085  0.00  0.00    +0.000 OA
ATOM     10  N   UNL     1       2.310   0.481   0.497  0.00  0.00    +0.000 N 
ATOM     11  C   UNL     1       3.530   1.126   0.913  0.00  0.00    +0.000 C 
ATOM     12  C   UNL     1       2.323  -0.848   0.238  0.00  0.00    +0.000 A 
ATOM     13  O   UNL     1       3.112  -1.561   0.925  0.00  0.00    +0.000 OA
ATOM     14  N   UNL     1       1.296  -1.411  -0.436  0.00  0.00    +0.000 N 
ATOM     15  C   UNL     1       1.383  -2.790  -0.840  0.00  0.00    +0.000 C 
ATOM     16  N   UNL     1      -1.150   0.974  -0.322  0.00  0.00    +0.000 N 
ATOM     17  C   UNL     1      -1.598   2.343  -0.473  0.00  0.00    +0.000 C 
ENDROOT
TORSDOF 0
ENDMDL
MODEL       14
REMARK  Name = 
REMARK  5 active torsions:
REMARK  status: ('A' for Active; 'I' for Inactive)
REMARK    1  A    between atoms: C_1  and  S_2
REMARK    2  A    between atoms: S_2  and  C_3
REMARK    3  A    between atoms: N_9  and  C_10
REMARK    4  A    between atoms: N_13  and  C_14
REMARK    5  A    between atoms: N_15  and  C_16
REMARK                            x       y       z     vdW  Elec       q    Type
REMARK                         _______ _______ _______ _____ _____    ______ ____
ROOT
ATOM      3  C   UNL     1       2.042  -0.768  -0.067  0.00  0.00    +0.000 A 
ATOM      4  N   UNL     1       1.067  -1.678  -0.308  0.00  0.00    +0.000 NA
ATOM      5  C   UNL     1      -0.102  -1.001  -0.399  0.00  0.00    +0.000 A 
ATOM      6  C   UNL     1       0.201   0.329  -0.606  0.00  0.00    +0.000 A 
ATOM      7  C   UNL     1      -0.827   1.261  -0.560  0.00  0.00    +0.000 A 
ATOM      8  O   UNL     1      -0.537   2.471  -0.658  0.00  0.00    +0.000 OA
ATOM      9  N   UNL     1      -2.017   0.901  -0.026  0.00  0.00    +0.000 N 
ATOM     10  C   UNL     1      -2.965   1.904   0.445  0.00  0.00    +0.000 C 
ATOM     11  C   UNL     1      -2.301  -0.389   0.256  0.00  0.00    +0.000 A 
ATOM     12  O   UNL     1      -3.161  -0.651   1.151  0.00  0.00    +0.000 OA
ATOM     13  N   UNL     1      -1.399  -1.297  -0.171  0.00  0.00    +0.000 N 
ATOM     14  C   UNL     1      -1.729  -2.692   0.106  0.00  0.00    +0.000 C 
ATOM     15  N   UNL     1       1.537   0.414  -0.502  0.00  0.00    +0.000 N 
ATOM     16  C   UNL     1       2.317   1.605  -0.722  0.00  0.00    +0.000 C 
ENDROOT
BRANCH   3   2
ATOM      1  C   UNL     1       4.277   0.602   1.260  0.00  0.00    +0.000 C 
ATOM      2  S   UNL     1       3.596  -1.011   0.801  0.00  0.00    +0.000 S 
ENDBRANCH   3   2
TORSDOF 1
ENDMDL
MODEL       15
REMARK  Name = 
REMARK  6 active torsions:
REMARK  status: ('A' for Active; 'I' for Inactive)
REMARK    1  A    between atoms: C_1  and  C_2
REMARK    2  A    between atoms: C_2  and  O_3
REMARK    3  A    between atoms: O_3  and  C_4
REMARK    4  A    between atoms: N_10  and  C_11
REMARK    5  A    between atoms: N_14  and  C_15
REMARK    6  A    between atoms: N_16  and  C_17
REMARK                            x       y       z     vdW  Elec       q    Type
REMARK                         _______ _______ _______ _____ _____    ______ ____
ROOT
ATOM      4  C   UNL     1       1.944   0.004   0.314  0.00  0.00    +0.000 A 
ATOM      5  N   UNL     1       1.215  -1.119   0.117  0.00  0.00    +0.000 NA
ATOM      6  C   UNL     1      -0.090  -0.823   0.152  0.00  0.00    +0.000 A 
ATOM      7  C   UNL     1      -0.197   0.550   0.181  0.00  0.00    +0.000 A 
ATOM      8  C   UNL     1      -1.446   1.125   0.290  0.00  0.00    +0.000 A 
ATOM      9  O   UNL     1      -1.597   2.279  -0.187  0.00  0.00    +0.000 OA
ATOM     10  N   UNL     1      -2.458   0.328   0.667  0.00  0.00    +0.000 N 
ATOM     11  C   UNL     1      -3.767   0.915   0.852  0.00  0.00    +0.000 C 
ATOM     12  C   UNL     1      -2.364  -1.008   0.455  0.00  0.00    +0.000 A 
ATOM     13  O   UNL     1      -3.407  -1.719   0.364  0.00  0.00    +0.000 OA
ATOM     14  N   UNL     1      -1.205  -1.564   0.031  0.00  0.00    +0.000 N 
ATOM     15  C   UNL     1      -1.172  -2.781  -0.770  0.00  0.00    +0.000 C 
ATOM     16  N   UNL     1       1.071   1.032   0.219  0.00  0.00    +0.000 N 
ATOM     17  C   UNL     1       1.321   2.443   0.495  0.00  0.00    +0.000 C 
ENDROOT
BRANCH   4   3
ATOM      3  O   UNL     1       3.149   0.147   1.007  0.00  0.00    +0.000 OA
BRANCH   3   2
ATOM      1  C   UNL     1       4.722  -0.440  -0.659  0.00  0.00    +0.000 C 
ATOM      2  C   UNL     1       4.281   0.630   0.298  0.00  0.00    +0.000 C 
ENDBRANCH   3   2
ENDBRANCH   4   3
TORSDOF 2
ENDMDL
MODEL       16
REMARK  Name = 
REMARK  3 active torsions:
REMARK  status: ('A' for Active; 'I' for Inactive)
REMARK    1  A    between atoms: C_1  and  N_2
REMARK    2  A    between atoms: N_10  and  C_11
REMARK    3  A    between atoms: N_14  and  C_15
REMARK                            x       y       z     vdW  Elec       q    Type
REMARK                         _______ _______ _______ _____ _____    ______ ____
ROOT
ATOM      1  C   UNL     1       2.120   2.007   0.985  0.00  0.00    +0.000 C 
ATOM      2  N   UNL     1       1.719   0.880   0.146  0.00  0.00    +0.000 N 
ATOM      3  C   UNL     1       2.470  -0.212  -0.137  0.00  0.00    +0.000 A 
ATOM      4  N   UNL     1       3.901  -0.257  -0.085  0.00  0.00    +0.000 N 
ATOM      5  N   UNL     1       1.662  -1.277  -0.360  0.00  0.00    +0.000 NA
ATOM      6  C   UNL     1       0.379  -0.870  -0.211  0.00  0.00    +0.000 A 
ATOM      7  C   UNL     1       0.465   0.515  -0.218  0.00  0.00    +0.000 A 
ATOM      8  C   UNL     1      -0.695   1.244  -0.226  0.00  0.00    +0.000 A 
ATOM      9  O   UNL     1      -0.642   2.487  -0.100  0.00  0.00    +0.000 OA
ATOM     10  N   UNL     1      -1.850   0.577  -0.267  0.00  0.00    +0.000 N 
ATOM     11  C   UNL     1      -3.100   1.268  -0.444  0.00  0.00    +0.000 C 
ATOM     12  C   UNL     1      -1.887  -0.721   0.054  0.00  0.00    +0.000 A 
ATOM     13  O   UNL     1      -2.930  -1.276   0.512  0.00  0.00    +0.000 OA
ATOM     14  N   UNL     1      -0.807  -1.520  -0.132  0.00  0.00    +0.000 N 
ATOM     15  C   UNL     1      -0.806  -2.845   0.483  0.00  0.00    +0.000 C 
ATOM     16  H   UNL     1       4.413   0.567   0.083  0.00  0.00    +0.000 HD
ATOM     17  H   UNL     1       4.372  -1.111  -0.217  0.00  0.00    +0.000 HD
ENDROOT
TORSDOF 0
ENDMDL
MODEL       17
REMARK  Name = 
REMARK  4 active torsions:
REMARK  status: ('A' for Active; 'I' for Inactive)
REMARK    1  A    between atoms: C_1  and  C_2
REMARK    2  A    between atoms: C_2  and  N_3
REMARK    3  A    between atoms: N_11  and  C_12
REMARK    4  A    between atoms: N_15  and  C_16
REMARK                            x       y       z     vdW  Elec       q    Type
REMARK                         _______ _______ _______ _____ _____    ______ ____
ROOT
ATOM      3  N   UNL     1       1.603  -0.590  -0.166  0.00  0.00    +0.000 N 
ATOM      4  C   UNL     1       2.288   0.572  -0.259  0.00  0.00    +0.000 A 
ATOM      5  N   UNL     1       3.695   0.788  -0.126  0.00  0.00    +0.000 N 
ATOM      6  N   UNL     1       1.408   1.600  -0.181  0.00  0.00    +0.000 NA
ATOM      7  C   UNL     1       0.142   1.115  -0.213  0.00  0.00    +0.000 A 
ATOM      8  C   UNL     1       0.320  -0.243  -0.423  0.00  0.00    +0.000 A 
ATOM      9  C   UNL     1      -0.835  -1.015  -0.391  0.00  0.00    +0.000 A 
ATOM     10  O   UNL     1      -0.671  -2.262  -0.536  0.00  0.00    +0.000 OA
ATOM     11  N   UNL     1      -2.054  -0.470  -0.163  0.00  0.00    +0.000 N 
ATOM     12  C   UNL     1      -3.188  -1.348   0.118  0.00  0.00    +0.000 C 
ATOM     13  C   UNL     1      -2.080   0.800   0.306  0.00  0.00    +0.000 A 
ATOM     14  O   UNL     1      -3.020   1.155   1.078  0.00  0.00    +0.000 OA
ATOM     15  N   UNL     1      -1.074   1.664   0.028  0.00  0.00    +0.000 N 
ATOM     16  C   UNL     1      -1.049   2.908   0.795  0.00  0.00    +0.000 C 
ATOM     17  H   UNL     1       4.318   0.028  -0.186  0.00  0.00    +0.000 HD
ATOM     18  H   UNL     1       4.041   1.697   0.025  0.00  0.00    +0.000 HD
ENDROOT
BRANCH   3   2
ATOM      1  C   UNL     1       2.425  -2.900  -0.402  0.00  0.00    +0.000 C 
ATOM      2  C   UNL     1       2.090  -1.774   0.536  0.00  0.00    +0.000 C 
ENDBRANCH   3   2
TORSDOF 1
ENDMDL
MODEL       18
REMARK  Name = 
REMARK  5 active torsions:
REMARK  status: ('A' for Active; 'I' for Inactive)
REMARK    1  A    between atoms: C_1  and  C_2
REMARK    2  A    between atoms: C_2  and  N_3
REMARK    3  A    between atoms: N_5  and  C_6
REMARK    4  A    between atoms: N_12  and  C_13
REMARK    5  A    between atoms: N_16  and  C_17
REMARK                            x       y       z     vdW  Elec       q    Type
REMARK                         _______ _______ _______ _____ _____    ______ ____
ROOT
ATOM      3  N   UNL     1       1.399  -0.748   0.035  0.00  0.00    +0.000 N 
ATOM      4  C   UNL     1       2.060   0.399  -0.258  0.00  0.00    +0.000 A 
ATOM      5  N   UNL     1       3.474   0.469  -0.222  0.00  0.00    +0.000 N 
ATOM      6  C   UNL     1       4.230   1.621   0.187  0.00  0.00    +0.000 C 
ATOM      7  N   UNL     1       1.163   1.301  -0.712  0.00  0.00    +0.000 NA
ATOM      8  C   UNL     1      -0.074   0.748  -0.762  0.00  0.00    +0.000 A 
ATOM      9  C   UNL     1       0.129  -0.573  -0.407  0.00  0.00    +0.000 A 
ATOM     10  C   UNL     1      -1.011  -1.339  -0.200  0.00  0.00    +0.000 A 
ATOM     11  O   UNL     1      -0.830  -2.532   0.151  0.00  0.00    +0.000 OA
ATOM     12  N   UNL     1      -2.220  -0.748  -0.174  0.00  0.00    +0.000 N 
ATOM     13  C   UNL     1      -3.382  -1.604  -0.264  0.00  0.00    +0.000 C 
ATOM     14  C   UNL     1      -2.287   0.597  -0.125  0.00  0.00    +0.000 A 
ATOM     15  O   UNL     1      -3.365   1.110   0.249  0.00  0.00    +0.000 OA
ATOM     16  N   UNL     1      -1.287   1.346  -0.656  0.00  0.00    +0.000 N 
ATOM     17  C   UNL     1      -1.403   2.774  -0.364  0.00  0.00    +0.000 C 
ATOM     18  H   UNL     1       3.977  -0.332  -0.497  0.00  0.00    +0.000 HD
ENDROOT
BRANCH   3   2
ATOM      1  C   UNL     1       1.544  -1.155   2.450  0.00  0.00    +0.000 C 
ATOM      2  C   UNL     1       1.861  -1.667   1.072  0.00  0.00    +0.000 C 
ENDBRANCH   3   2
TORSDOF 1
ENDMDL
MODEL       19
REMARK  Name = 
REMARK  5 active torsions:
REMARK  status: ('A' for Active; 'I' for Inactive)
REMARK    1  A    between atoms: C_1  and  N_2
REMARK    2  A    between atoms: C_3  and  C_4
REMARK    3  A    between atoms: C_4  and  O_5
REMARK    4  A    between atoms: N_11  and  C_12
REMARK    5  A    between atoms: N_15  and  C_16
REMARK                            x       y       z     vdW  Elec       q    Type
REMARK                         _______ _______ _______ _____ _____    ______ ____
ROOT
ATOM      1  C   UNL     1       2.319   1.778   0.102  0.00  0.00    +0.000 C 
ATOM      2  N   UNL     1       1.600   0.555  -0.233  0.00  0.00    +0.000 N 
ATOM      3  C   UNL     1       2.062  -0.710  -0.099  0.00  0.00    +0.000 A 
ATOM      6  N   UNL     1       1.058  -1.491  -0.520  0.00  0.00    +0.000 NA
ATOM      7  C   UNL     1      -0.070  -0.760  -0.696  0.00  0.00    +0.000 A 
ATOM      8  C   UNL     1       0.263   0.553  -0.403  0.00  0.00    +0.000 A 
ATOM      9  C   UNL     1      -0.791   1.375  -0.031  0.00  0.00    +0.000 A 
ATOM     10  O   UNL     1      -0.455   2.530   0.360  0.00  0.00    +0.000 OA
ATOM     11  N   UNL     1      -1.991   0.904   0.344  0.00  0.00    +0.000 N 
ATOM     12  C   UNL     1      -2.708   1.407   1.512  0.00  0.00    +0.000 C 
ATOM     13  C   UNL     1      -2.331  -0.320  -0.124  0.00  0.00    +0.000 A 
ATOM     14  O   UNL     1      -3.408  -0.834   0.308  0.00  0.00    +0.000 OA
ATOM     15  N   UNL     1      -1.386  -1.087  -0.716  0.00  0.00    +0.000 N 
ATOM     16  C   UNL     1      -1.668  -2.479  -1.060  0.00  0.00    +0.000 C 
ENDROOT
BRANCH   3   4
ATOM      4  C   UNL     1       3.231  -1.154   0.721  0.00  0.00    +0.000 C 
BRANCH   4   5
ATOM      5  O   UNL     1       4.275  -0.268   0.535  0.00  0.00    +0.000 OA
ATOM     17  H   UNL     1       4.520  -0.249  -0.403  0.00  0.00    +0.000 HD
ENDBRANCH   4   5
ENDBRANCH   3   4
TORSDOF 2
ENDMDL
MODEL       20
REMARK  Name = 
REMARK  3 active torsions:
REMARK  status: ('A' for Active; 'I' for Inactive)
REMARK    1  A    between atoms: C_2  and  N_3
REMARK    2  A    between atoms: N_10  and  C_11
REMARK    3  A    between atoms: N_14  and  C_15
REMARK                            x       y       z     vdW  Elec       q    Type
REMARK                         _______ _______ _______ _____ _____    ______ ____
ROOT
ATOM      3  N   UNL     1       1.900  -0.511  -0.312  0.00  0.00    +0.000 N 
ATOM      4  C   UNL     1       1.795  -1.825  -0.633  0.00  0.00    +0.000 A 
ATOM      5  N   UNL     1       0.550  -2.265  -0.371  0.00  0.00    +0.000 NA
ATOM      6  C   UNL     1      -0.206  -1.179  -0.141  0.00  0.00    +0.000 A 
ATOM      7  C   UNL     1       0.617  -0.074  -0.322  0.00  0.00    +0.000 A 
ATOM      8  C   UNL     1       0.070   1.176  -0.063  0.00  0.00    +0.000 A 
ATOM      9  O   UNL     1       0.811   2.081   0.426  0.00  0.00    +0.000 OA
ATOM     10  N   UNL     1      -1.265   1.307   0.110  0.00  0.00    +0.000 N 
ATOM     11  C   UNL     1      -1.873   2.613   0.346  0.00  0.00    +0.000 C 
ATOM     12  C   UNL     1      -2.053   0.204   0.124  0.00  0.00    +0.000 A 
ATOM     13  O   UNL     1      -3.286   0.289  -0.140  0.00  0.00    +0.000 OA
ATOM     14  N   UNL     1      -1.526  -1.028   0.123  0.00  0.00    +0.000 N 
ATOM     15  C   UNL     1      -2.227  -2.073   0.842  0.00  0.00    +0.000 C 
ENDROOT
BRANCH   3   2
ATOM      1  C   UNL     1       3.674   1.135  -0.279  0.00  0.00    +0.000 C 
ATOM      2  C   UNL     1       3.019   0.150   0.290  0.00  0.00    +0.000 C 
ENDBRANCH   3   2
TORSDOF 1
ENDMDL
MODEL       21
REMARK  Name = 
REMARK  2 active torsions:
REMARK  status: ('A' for Active; 'I' for Inactive)
REMARK    1  A    between atoms: C_1  and  N_2
REMARK    2  A    between atoms: N_10  and  C_11
REMARK                            x       y       z     vdW  Elec       q    Type
REMARK                         _______ _______ _______ _____ _____    ______ ____
ROOT
ATOM      1  C   UNL     1      -1.868   2.419  -1.287  0.00  0.00    +0.000 C 
ATOM      2  N   UNL     1      -1.612   1.309  -0.377  0.00  0.00    +0.000 N 
ATOM      3  C   UNL     1      -0.345   1.196   0.095  0.00  0.00    +0.000 A 
ATOM      4  N   UNL     1       0.826   1.832  -0.152  0.00  0.00    +0.000 NA
ATOM      5  C   UNL     1       1.857   0.969  -0.063  0.00  0.00    +0.000 A 
ATOM      6  N   UNL     1       1.392  -0.027   0.727  0.00  0.00    +0.000 N 
ATOM      7  C   UNL     1       0.040   0.029   0.745  0.00  0.00    +0.000 A 
ATOM      8  C   UNL     1      -0.968  -0.908   0.939  0.00  0.00    +0.000 A 
ATOM      9  O   UNL     1      -0.655  -1.925   1.628  0.00  0.00    +0.000 OA
ATOM     10  N   UNL     1      -2.147  -0.845   0.312  0.00  0.00    +0.000 N 
ATOM     11  C   UNL     1      -2.956  -2.048   0.151  0.00  0.00    +0.000 C 
ATOM     12  C   UNL     1      -2.428   0.229  -0.465  0.00  0.00    +0.000 A 
ATOM     13  O   UNL     1      -3.211   0.058  -1.448  0.00  0.00    +0.000 OA
ATOM     14  C   UNL     1       2.313  -1.095   1.065  0.00  0.00    +0.000 C 
ATOM     15  C   UNL     1       3.054  -1.434  -0.180  0.00  0.00    +0.000 C 
ATOM     16  N   UNL     1       3.618  -0.528  -0.924  0.00  0.00    +0.000 NA
ATOM     17  N   UNL     1       3.089   0.769  -0.767  0.00  0.00    +0.000 N 
ATOM     18  H   UNL     1       3.568   1.542  -1.144  0.00  0.00    +0.000 HD
ENDROOT
TORSDOF 0
ENDMDL
MODEL       22
REMARK  Name = 
REMARK  4 active torsions:
REMARK  status: ('A' for Active; 'I' for Inactive)
REMARK    1  A    between atoms: C_2  and  C_3
REMARK    2  A    between atoms: C_3  and  N_4
REMARK    3  A    between atoms: N_12  and  C_13
REMARK    4  A    between atoms: N_16  and  C_17
REMARK                            x       y       z     vdW  Elec       q    Type
REMARK                         _______ _______ _______ _____ _____    ______ ____
ROOT
ATOM      4  N   UNL     1       1.514  -0.062   0.334  0.00  0.00    +0.000 N 
ATOM      5  C   UNL     1       1.599  -1.240   1.001  0.00  0.00    +0.000 A 
ATOM      6  N   UNL     1       2.711  -1.658   1.791  0.00  0.00    +0.000 N 
ATOM      7  N   UNL     1       0.454  -1.916   0.779  0.00  0.00    +0.000 NA
ATOM      8  C   UNL     1      -0.383  -1.141   0.086  0.00  0.00    +0.000 A 
ATOM      9  C   UNL     1       0.216   0.109  -0.019  0.00  0.00    +0.000 A 
ATOM     10  C   UNL     1      -0.558   1.253  -0.177  0.00  0.00    +0.000 A 
ATOM     11  O   UNL     1      -0.119   2.391   0.166  0.00  0.00    +0.000 OA
ATOM     12  N   UNL     1      -1.906   1.115  -0.137  0.00  0.00    +0.000 N 
ATOM     13  C   UNL     1      -2.776   2.194   0.307  0.00  0.00    +0.000 C 
ATOM     14  C   UNL     1      -2.402  -0.100  -0.452  0.00  0.00    +0.000 A 
ATOM     15  O   UNL     1      -3.643  -0.152  -0.676  0.00  0.00    +0.000 OA
ATOM     16  N   UNL     1      -1.653  -1.225  -0.373  0.00  0.00    +0.000 N 
ATOM     17  C   UNL     1      -2.343  -2.495  -0.178  0.00  0.00    +0.000 C 
ATOM     18  H   UNL     1       3.499  -1.074   1.879  0.00  0.00    +0.000 HD
ATOM     19  H   UNL     1       2.691  -2.530   2.247  0.00  0.00    +0.000 HD
ENDROOT
BRANCH   4   3
ATOM      3  C   UNL     1       2.457   1.034   0.299  0.00  0.00    +0.000 C 
BRANCH   3   2
ATOM      1  C   UNL     1       3.319   1.028  -2.029  0.00  0.00    +0.000 C 
ATOM      2  C   UNL     1       3.513   0.866  -0.722  0.00  0.00    +0.000 C 
ENDBRANCH   3   2
ENDBRANCH   4   3
TORSDOF 2
ENDMDL
MODEL       23
REMARK  Name = 
REMARK  5 active torsions:
REMARK  status: ('A' for Active; 'I' for Inactive)
REMARK    1  A    between atoms: C_2  and  C_3
REMARK    2  A    between atoms: C_3  and  N_4
REMARK    3  A    between atoms: N_6  and  C_7
REMARK    4  A    between atoms: N_13  and  C_14
REMARK    5  A    between atoms: N_17  and  C_18
REMARK                            x       y       z     vdW  Elec       q    Type
REMARK                         _______ _______ _______ _____ _____    ______ ____
ROOT
ATOM      4  N   UNL     1      -1.381  -0.211  -0.193  0.00  0.00    +0.000 N 
ATOM      5  C   UNL     1      -1.731   1.081   0.030  0.00  0.00    +0.000 A 
ATOM      6  N   UNL     1      -2.756   1.845  -0.622  0.00  0.00    +0.000 N 
ATOM      7  C   UNL     1      -2.490   3.215  -1.020  0.00  0.00    +0.000 C 
ATOM      8  N   UNL     1      -0.705   1.550   0.783  0.00  0.00    +0.000 NA
ATOM      9  C   UNL     1       0.331   0.676   0.756  0.00  0.00    +0.000 A 
ATOM     10  C   UNL     1      -0.025  -0.263  -0.207  0.00  0.00    +0.000 A 
ATOM     11  C   UNL     1       0.927  -1.102  -0.737  0.00  0.00    +0.000 A 
ATOM     12  O   UNL     1       0.544  -2.047  -1.481  0.00  0.00    +0.000 OA
ATOM     13  N   UNL     1       2.229  -0.875  -0.535  0.00  0.00    +0.000 N 
ATOM     14  C   UNL     1       3.182  -1.933  -0.759  0.00  0.00    +0.000 C 
ATOM     15  C   UNL     1       2.550   0.219   0.200  0.00  0.00    +0.000 A 
ATOM     16  O   UNL     1       3.754   0.602   0.168  0.00  0.00    +0.000 OA
ATOM     17  N   UNL     1       1.655   0.934   0.882  0.00  0.00    +0.000 N 
ATOM     18  C   UNL     1       2.049   1.689   2.058  0.00  0.00    +0.000 C 
ATOM     19  H   UNL     1      -3.636   1.441  -0.799  0.00  0.00    +0.000 HD
ENDROOT
BRANCH   4   3
ATOM      3  C   UNL     1      -2.227  -1.200  -0.808  0.00  0.00    +0.000 C 
BRANCH   3   2
ATOM      1  C   UNL     1      -2.762  -2.312   1.344  0.00  0.00    +0.000 C 
ATOM      2  C   UNL     1      -3.144  -1.868   0.141  0.00  0.00    +0.000 C 
ENDBRANCH   3   2
ENDBRANCH   4   3
TORSDOF 2
ENDMDL
MODEL       24
REMARK  Name = 
REMARK  5 active torsions:
REMARK  status: ('A' for Active; 'I' for Inactive)
REMARK    1  A    between atoms: C_1  and  C_2
REMARK    2  A    between atoms: C_2  and  N_3
REMARK    3  A    between atoms: N_5  and  N_6
REMARK    4  A    between atoms: N_12  and  C_13
REMARK    5  A    between atoms: N_16  and  C_17
REMARK                            x       y       z     vdW  Elec       q    Type
REMARK                         _______ _______ _______ _____ _____    ______ ____
ROOT
ATOM      3  N   UNL     1       1.447   0.345   0.398  0.00  0.00    +0.000 N 
ATOM      4  C   UNL     1       1.916  -0.856  -0.020  0.00  0.00    +0.000 A 
ATOM      5  N   UNL     1       3.108  -0.983  -0.803  0.00  0.00    +0.000 N 
ATOM      7  N   UNL     1       0.903  -1.745   0.115  0.00  0.00    +0.000 NA
ATOM      8  C   UNL     1      -0.233  -1.036   0.275  0.00  0.00    +0.000 A 
ATOM      9  C   UNL     1       0.093   0.300   0.472  0.00  0.00    +0.000 A 
ATOM     10  C   UNL     1      -0.874   1.298   0.443  0.00  0.00    +0.000 A 
ATOM     11  O   UNL     1      -0.543   2.443   0.820  0.00  0.00    +0.000 OA
ATOM     12  N   UNL     1      -2.086   0.946   0.017  0.00  0.00    +0.000 N 
ATOM     13  C   UNL     1      -2.990   2.014  -0.396  0.00  0.00    +0.000 C 
ATOM     14  C   UNL     1      -2.492  -0.340   0.124  0.00  0.00    +0.000 A 
ATOM     15  O   UNL     1      -3.714  -0.590   0.169  0.00  0.00    +0.000 OA
ATOM     16  N   UNL     1      -1.556  -1.319   0.184  0.00  0.00    +0.000 N 
ATOM     17  C   UNL     1      -1.980  -2.669  -0.096  0.00  0.00    +0.000 C 
ATOM     18  H   UNL     1       3.146  -0.522  -1.672  0.00  0.00    +0.000 HD
ENDROOT
BRANCH   5   6
ATOM      6  N   UNL     1       4.213  -1.719  -0.403  0.00  0.00    +0.000 NA
ATOM     19  H   UNL     1       4.031  -2.137   0.510  0.00  0.00    +0.000 HD
ATOM     20  H   UNL     1       5.026  -1.107  -0.340  0.00  0.00    +0.000 HD
ENDBRANCH   5   6
BRANCH   3   2
ATOM      1  C   UNL     1       2.528   2.535   0.090  0.00  0.00    +0.000 C 
ATOM      2  C   UNL     1       2.259   1.376   1.011  0.00  0.00    +0.000 C 
ENDBRANCH   3   2
TORSDOF 2
ENDMDL
MODEL       25
REMARK  Name = 
REMARK  4 active torsions:
REMARK  status: ('A' for Active; 'I' for Inactive)
REMARK    1  A    between atoms: C_1  and  N_2
REMARK    2  A    between atoms: N_6  and  C_7
REMARK    3  A    between atoms: C_7  and  C_8
REMARK    4  A    between atoms: N_14  and  C_15
REMARK                            x       y       z     vdW  Elec       q    Type
REMARK                         _______ _______ _______ _____ _____    ______ ____
ROOT
ATOM      1  C   UNL     1      -2.514  -2.386   0.930  0.00  0.00    +0.000 C 
ATOM      2  N   UNL     1      -2.058  -1.167   0.269  0.00  0.00    +0.000 N 
ATOM      3  C   UNL     1      -0.882  -1.165  -0.405  0.00  0.00    +0.000 A 
ATOM      4  N   UNL     1      -0.006  -2.138  -0.698  0.00  0.00    +0.000 NA
ATOM      5  C   UNL     1       1.207  -1.578  -0.929  0.00  0.00    +0.000 A 
ATOM      6  N   UNL     1       1.180  -0.295  -0.573  0.00  0.00    +0.000 N 
ATOM     11  C   UNL     1      -0.125   0.002  -0.361  0.00  0.00    +0.000 A 
ATOM     12  C   UNL     1      -0.861   1.181  -0.403  0.00  0.00    +0.000 A 
ATOM     13  O   UNL     1      -0.242   2.263  -0.620  0.00  0.00    +0.000 OA
ATOM     14  N   UNL     1      -2.058   1.207   0.233  0.00  0.00    +0.000 N 
ATOM     15  C   UNL     1      -2.461   2.436   0.912  0.00  0.00    +0.000 C 
ATOM     16  C   UNL     1      -2.572   0.026   0.651  0.00  0.00    +0.000 A 
ATOM     17  O   UNL     1      -3.790   0.016   1.002  0.00  0.00    +0.000 OA
ENDROOT
BRANCH   6   7
ATOM      7  C   UNL     1       2.270   0.639  -0.318  0.00  0.00    +0.000 C 
BRANCH   7   8
ATOM      8  C   UNL     1       3.544  -0.111   0.023  0.00  0.00    +0.000 C 
ATOM      9  C   UNL     1       4.542   0.742   0.839  0.00  0.00    +0.000 C 
ATOM     10  C   UNL     1       4.826   0.329  -0.551  0.00  0.00    +0.000 C 
ENDBRANCH   7   8
ENDBRANCH   6   7
TORSDOF 2
ENDMDL
MODEL       26
REMARK  Name = 
REMARK  3 active torsions:
REMARK  status: ('A' for Active; 'I' for Inactive)
REMARK    1  A    between atoms: C_1  and  N_2
REMARK    2  A    between atoms: N_10  and  C_11
REMARK    3  A    between atoms: N_14  and  C_15
REMARK                            x       y       z     vdW  Elec       q    Type
REMARK                         _______ _______ _______ _____ _____    ______ ____
ROOT
ATOM      1  C   UNL     1       2.442  -1.966   0.060  0.00  0.00    +0.000 C 
ATOM      2  N   UNL     1       1.800  -0.660  -0.050  0.00  0.00    +0.000 N 
ATOM      3  C   UNL     1       2.419   0.542  -0.026  0.00  0.00    +0.000 A 
ATOM      4 CL   UNL     1       3.876   0.863   0.910  0.00  0.00    +0.000 Cl
ATOM      5  N   UNL     1       1.502   1.424  -0.478  0.00  0.00    +0.000 NA
ATOM      6  C   UNL     1       0.264   0.876  -0.441  0.00  0.00    +0.000 A 
ATOM      7  C   UNL     1       0.490  -0.487  -0.354  0.00  0.00    +0.000 A 
ATOM      8  C   UNL     1      -0.595  -1.355  -0.343  0.00  0.00    +0.000 A 
ATOM      9  O   UNL     1      -0.363  -2.495   0.165  0.00  0.00    +0.000 OA
ATOM     10  N   UNL     1      -1.788  -0.807  -0.005  0.00  0.00    +0.000 N 
ATOM     11  C   UNL     1      -2.945  -1.658   0.264  0.00  0.00    +0.000 C 
ATOM     12  C   UNL     1      -1.977   0.535   0.016  0.00  0.00    +0.000 A 
ATOM     13  O   UNL     1      -2.995   1.010   0.605  0.00  0.00    +0.000 OA
ATOM     14  N   UNL     1      -0.988   1.388  -0.346  0.00  0.00    +0.000 N 
ATOM     15  C   UNL     1      -1.142   2.791   0.024  0.00  0.00    +0.000 C 
ENDROOT
TORSDOF 0
ENDMDL
MODEL       27
REMARK  Name = 
REMARK  4 active torsions:
REMARK  status: ('A' for Active; 'I' for Inactive)
REMARK    1  A    between atoms: C_2  and  C_3
REMARK    2  A    between atoms: C_3  and  N_4
REMARK    3  A    between atoms: N_11  and  C_12
REMARK    4  A    between atoms: N_13  and  C_14
REMARK                            x       y       z     vdW  Elec       q    Type
REMARK                         _______ _______ _______ _____ _____    ______ ____
ROOT
ATOM      4  N   UNL     1       1.158   0.151  -0.569  0.00  0.00    +0.000 N 
ATOM      5  C   UNL     1       0.256  -0.859  -0.524  0.00  0.00    +0.000 A 
ATOM      6  O   UNL     1       0.498  -1.933  -1.150  0.00  0.00    +0.000 OA
ATOM      7  C   UNL     1      -0.932  -0.683   0.175  0.00  0.00    +0.000 A 
ATOM      8  C   UNL     1      -1.167   0.571   0.722  0.00  0.00    +0.000 A 
ATOM      9  N   UNL     1      -2.494   0.613   0.908  0.00  0.00    +0.000 NA
ATOM     10  C   UNL     1      -3.116  -0.373   0.234  0.00  0.00    +0.000 A 
ATOM     11  N   UNL     1      -2.136  -1.273  -0.025  0.00  0.00    +0.000 N 
ATOM     12  C   UNL     1      -2.412  -2.529  -0.716  0.00  0.00    +0.000 C 
ATOM     13  N   UNL     1      -0.321   1.601   0.476  0.00  0.00    +0.000 N 
ATOM     14  C   UNL     1      -0.697   2.988   0.690  0.00  0.00    +0.000 C 
ATOM     15  C   UNL     1       0.851   1.403  -0.174  0.00  0.00    +0.000 A 
ATOM     16  O   UNL     1       1.476   2.351  -0.737  0.00  0.00    +0.000 OA
ENDROOT
BRANCH   4   3
ATOM      3  C   UNL     1       2.525  -0.200  -0.839  0.00  0.00    +0.000 C 
BRANCH   3   2
ATOM      1  C   UNL     1       3.238  -1.483   1.103  0.00  0.00    +0.000 C 
ATOM      2  C   UNL     1       3.272  -0.345   0.427  0.00  0.00    +0.000 C 
ENDBRANCH   3   2
ENDBRANCH   4   3
TORSDOF 2
ENDMDL
MODEL       28
REMARK  Name = 
REMARK  4 active torsions:
REMARK  status: ('A' for Active; 'I' for Inactive)
REMARK    1  A    between atoms: C_1  and  N_2
REMARK    2  A    between atoms: C_3  and  C_4
REMARK    3  A    between atoms: N_12  and  C_13
REMARK    4  A    between atoms: N_16  and  C_17
REMARK                            x       y       z     vdW  Elec       q    Type
REMARK                         _______ _______ _______ _____ _____    ______ ____
ROOT
ATOM      1  C   UNL     1       1.567  -2.386   0.267  0.00  0.00    +0.000 C 
ATOM      2  N   UNL     1       1.161  -1.008   0.315  0.00  0.00    +0.000 N 
ATOM      3  C   UNL     1       1.973   0.043   0.589  0.00  0.00    +0.000 A 
ATOM      7  N   UNL     1       1.191   1.057   1.022  0.00  0.00    +0.000 NA
ATOM      8  C   UNL     1      -0.063   0.752   0.607  0.00  0.00    +0.000 A 
ATOM      9  C   UNL     1      -0.131  -0.617   0.396  0.00  0.00    +0.000 A 
ATOM     10  C   UNL     1      -1.349  -1.262   0.489  0.00  0.00    +0.000 A 
ATOM     11  O   UNL     1      -1.370  -2.476   0.831  0.00  0.00    +0.000 OA
ATOM     12  N   UNL     1      -2.440  -0.476   0.665  0.00  0.00    +0.000 N 
ATOM     13  C   UNL     1      -3.722  -1.135   0.719  0.00  0.00    +0.000 C 
ATOM     14  C   UNL     1      -2.412   0.857   0.579  0.00  0.00    +0.000 A 
ATOM     15  O   UNL     1      -3.370   1.534   0.158  0.00  0.00    +0.000 OA
ATOM     16  N   UNL     1      -1.203   1.445   0.628  0.00  0.00    +0.000 N 
ATOM     17  C   UNL     1      -1.168   2.882   0.885  0.00  0.00    +0.000 C 
ENDROOT
BRANCH   3   4
ATOM      4  C   UNL     1       3.387   0.118   0.200  0.00  0.00    +0.000 C 
ATOM      5  N   UNL     1       4.068   1.368   0.358  0.00  0.00    +0.000 N 
ATOM      6  O   UNL     1       3.881  -0.696  -0.632  0.00  0.00    +0.000 OA
ATOM     18  H   UNL     1       3.726   2.038   0.993  0.00  0.00    +0.000 HD
ATOM     19  H   UNL     1       4.878   1.557  -0.169  0.00  0.00    +0.000 HD
ENDBRANCH   3   4
TORSDOF 1
ENDMDL
MODEL       29
REMARK  Name = 
REMARK  4 active torsions:
REMARK  status: ('A' for Active; 'I' for Inactive)
REMARK    1  A    between atoms: C_2  and  C_3
REMARK    2  A    between atoms: C_3  and  N_4
REMARK    3  A    between atoms: N_11  and  C_12
REMARK    4  A    between atoms: N_15  and  C_16
REMARK                            x       y       z     vdW  Elec       q    Type
REMARK                         _______ _______ _______ _____ _____    ______ ____
ROOT
ATOM      4  N   UNL     1       1.547  -0.239   0.964  0.00  0.00    +0.000 N 
ATOM      5  C   UNL     1       1.419   0.617   1.996  0.00  0.00    +0.000 A 
ATOM      6  N   UNL     1       0.543   1.554   1.557  0.00  0.00    +0.000 NA
ATOM      7  C   UNL     1      -0.204   0.995   0.574  0.00  0.00    +0.000 A 
ATOM      8  C   UNL     1       0.429  -0.183   0.198  0.00  0.00    +0.000 A 
ATOM      9  C   UNL     1      -0.323  -1.119  -0.483  0.00  0.00    +0.000 A 
ATOM     10  O   UNL     1       0.209  -2.232  -0.693  0.00  0.00    +0.000 OA
ATOM     11  N   UNL     1      -1.637  -0.944  -0.738  0.00  0.00    +0.000 N 
ATOM     12  C   UNL     1      -2.544  -2.074  -0.754  0.00  0.00    +0.000 C 
ATOM     13  C   UNL     1      -2.117   0.308  -0.574  0.00  0.00    +0.000 A 
ATOM     14  O   UNL     1      -3.357   0.537  -0.712  0.00  0.00    +0.000 OA
ATOM     15  N   UNL     1      -1.393   1.275   0.004  0.00  0.00    +0.000 N 
ATOM     16  C   UNL     1      -1.814   2.667   0.035  0.00  0.00    +0.000 C 
ENDROOT
BRANCH   4   3
ATOM      3  C   UNL     1       2.677  -1.054   0.567  0.00  0.00    +0.000 C 
BRANCH   3   2
ATOM      1  C   UNL     1       3.359   0.570  -1.178  0.00  0.00    +0.000 C 
ATOM      2  C   UNL     1       3.208  -0.677  -0.764  0.00  0.00    +0.000 C 
ENDBRANCH   3   2
ENDBRANCH   4   3
TORSDOF 2
ENDMDL
MODEL       30
REMARK  Name = 
REMARK  5 active torsions:
REMARK  status: ('A' for Active; 'I' for Inactive)
REMARK    1  A    between atoms: C_1  and  C_2
REMARK    2  A    between atoms: C_2  and  C_3
REMARK    3  A    between atoms: C_3  and  N_4
REMARK    4  A    between atoms: N_11  and  C_12
REMARK    5  A    between atoms: N_15  and  C_16
REMARK                            x       y       z     vdW  Elec       q    Type
REMARK                         _______ _______ _______ _____ _____    ______ ____
ROOT
ATOM      4  N   UNL     1       1.346  -0.580   1.087  0.00  0.00    +0.000 N 
ATOM      5  C   UNL     1       1.083  -1.891   1.307  0.00  0.00    +0.000 A 
ATOM      6  N   UNL     1      -0.043  -2.256   0.655  0.00  0.00    +0.000 NA
ATOM      7  C   UNL     1      -0.593  -1.154   0.106  0.00  0.00    +0.000 A 
ATOM      8  C   UNL     1       0.299  -0.124   0.356  0.00  0.00    +0.000 A 
ATOM      9  C   UNL     1      -0.226   1.157   0.262  0.00  0.00    +0.000 A 
ATOM     10  O   UNL     1       0.498   2.115   0.591  0.00  0.00    +0.000 OA
ATOM     11  N   UNL     1      -1.443   1.374  -0.291  0.00  0.00    +0.000 N 
ATOM     12  C   UNL     1      -2.165   2.586   0.033  0.00  0.00    +0.000 C 
ATOM     13  C   UNL     1      -2.192   0.335  -0.734  0.00  0.00    +0.000 A 
ATOM     14  O   UNL     1      -2.961   0.593  -1.708  0.00  0.00    +0.000 OA
ATOM     15  N   UNL     1      -1.673  -0.911  -0.676  0.00  0.00    +0.000 N 
ATOM     16  C   UNL     1      -2.372  -2.010  -1.280  0.00  0.00    +0.000 C 
ENDROOT
BRANCH   4   3
ATOM      3  C   UNL     1       2.648   0.064   1.055  0.00  0.00    +0.000 C 
BRANCH   3   2
ATOM      1  C   UNL     1       4.631   0.499  -0.390  0.00  0.00    +0.000 C 
ATOM      2  C   UNL     1       3.160   0.205  -0.375  0.00  0.00    +0.000 C 
ENDBRANCH   3   2
ENDBRANCH   4   3
TORSDOF 2
ENDMDL
MODEL       31
REMARK  Name = 
REMARK  5 active torsions:
REMARK  status: ('A' for Active; 'I' for Inactive)
REMARK    1  A    between atoms: C_1  and  C_2
REMARK    2  A    between atoms: C_2  and  C_4
REMARK    3  A    between atoms: C_4  and  N_5
REMARK    4  A    between atoms: N_12  and  C_13
REMARK    5  A    between atoms: N_16  and  C_17
REMARK                            x       y       z     vdW  Elec       q    Type
REMARK                         _______ _______ _______ _____ _____    ______ ____
ROOT
ATOM      5  N   UNL     1       1.218  -0.762   0.216  0.00  0.00    +0.000 N 
ATOM      6  C   UNL     1       0.944  -1.996   0.704  0.00  0.00    +0.000 A 
ATOM      7  N   UNL     1      -0.339  -2.086   1.071  0.00  0.00    +0.000 NA
ATOM      8  C   UNL     1      -0.940  -0.924   0.723  0.00  0.00    +0.000 A 
ATOM      9  C   UNL     1       0.081  -0.047   0.368  0.00  0.00    +0.000 A 
ATOM     10  C   UNL     1      -0.320   1.216  -0.048  0.00  0.00    +0.000 A 
ATOM     11  O   UNL     1       0.549   1.929  -0.635  0.00  0.00    +0.000 OA
ATOM     12  N   UNL     1      -1.639   1.456  -0.218  0.00  0.00    +0.000 N 
ATOM     13  C   UNL     1      -2.009   2.753  -0.745  0.00  0.00    +0.000 C 
ATOM     14  C   UNL     1      -2.552   0.482  -0.216  0.00  0.00    +0.000 A 
ATOM     15  O   UNL     1      -3.616   0.528  -0.904  0.00  0.00    +0.000 OA
ATOM     16  N   UNL     1      -2.230  -0.673   0.387  0.00  0.00    +0.000 N 
ATOM     17  C   UNL     1      -3.235  -1.725   0.448  0.00  0.00    +0.000 C 
ENDROOT
BRANCH   5   4
ATOM      4  C   UNL     1       2.329  -0.398  -0.652  0.00  0.00    +0.000 C 
BRANCH   4   2
ATOM      1  C   UNL     1       4.710  -0.849   0.211  0.00  0.00    +0.000 C 
ATOM      2  C   UNL     1       3.517   0.047   0.106  0.00  0.00    +0.000 C 
ATOM      3  O   UNL     1       3.534   1.049   0.817  0.00  0.00    +0.000 OA
ENDBRANCH   4   2
ENDBRANCH   5   4
TORSDOF 2
ENDMDL
MODEL       32
REMARK  Name = 
REMARK  5 active torsions:
REMARK  status: ('A' for Active; 'I' for Inactive)
REMARK    1  A    between atoms: C_1  and  N_2
REMARK    2  A    between atoms: N_4  and  C_5
REMARK    3  A    between atoms: C_5  and  C_6
REMARK    4  A    between atoms: N_10  and  C_11
REMARK    5  A    between atoms: N_14  and  C_15
REMARK                            x       y       z     vdW  Elec       q    Type
REMARK                         _______ _______ _______ _____ _____    ______ ____
ROOT
ATOM      1  C   UNL     1      -0.846   3.393  -0.121  0.00  0.00    +0.000 C 
ATOM      2  N   UNL     1      -0.074   2.166  -0.292  0.00  0.00    +0.000 N 
ATOM      3  C   UNL     1       1.238   2.047  -0.552  0.00  0.00    +0.000 A 
ATOM      4  N   UNL     1       1.523   0.737  -0.603  0.00  0.00    +0.000 N 
ATOM      8  C   UNL     1       0.355   0.060  -0.556  0.00  0.00    +0.000 A 
ATOM      9  C   UNL     1      -0.641   0.939  -0.193  0.00  0.00    +0.000 A 
ATOM     10  N   UNL     1      -1.692   0.468   0.523  0.00  0.00    +0.000 N 
ATOM     11  C   UNL     1      -2.815   1.375   0.729  0.00  0.00    +0.000 C 
ATOM     12  C   UNL     1      -1.866  -0.873   0.603  0.00  0.00    +0.000 A 
ATOM     13  O   UNL     1      -2.811  -1.333   1.284  0.00  0.00    +0.000 OA
ATOM     14  N   UNL     1      -1.149  -1.736  -0.122  0.00  0.00    +0.000 N 
ATOM     15  C   UNL     1      -1.609  -3.062  -0.494  0.00  0.00    +0.000 C 
ATOM     16  C   UNL     1       0.038  -1.292  -0.604  0.00  0.00    +0.000 A 
ATOM     17  O   UNL     1       0.812  -2.046  -1.268  0.00  0.00    +0.000 OA
ENDROOT
BRANCH   4   5
ATOM      5  C   UNL     1       2.821   0.073  -0.708  0.00  0.00    +0.000 C 
BRANCH   5   6
ATOM      6  C   UNL     1       3.217  -0.255   0.671  0.00  0.00    +0.000 C 
ATOM      7  N   UNL     1       3.498  -0.663   1.704  0.00  0.00    +0.000 NA
ENDBRANCH   5   6
ENDBRANCH   4   5
TORSDOF 2
ENDMDL
MODEL       33
REMARK  Name = 
REMARK  5 active torsions:
REMARK  status: ('A' for Active; 'I' for Inactive)
REMARK    1  A    between atoms: C_1  and  C_2
REMARK    2  A    between atoms: C_2  and  C_3
REMARK    3  A    between atoms: C_2  and  N_4
REMARK    4  A    between atoms: N_12  and  C_13
REMARK    5  A    between atoms: N_16  and  C_17
REMARK                            x       y       z     vdW  Elec       q    Type
REMARK                         _______ _______ _______ _____ _____    ______ ____
ROOT
ATOM      4  N   UNL     1      -1.518   0.104   0.191  0.00  0.00    +0.000 N 
ATOM      5  C   UNL     1      -1.683   1.439   0.059  0.00  0.00    +0.000 A 
ATOM      6  N   UNL     1      -2.961   2.061   0.037  0.00  0.00    +0.000 N 
ATOM      7  N   UNL     1      -0.478   2.040  -0.091  0.00  0.00    +0.000 NA
ATOM      8  C   UNL     1       0.460   1.090  -0.055  0.00  0.00    +0.000 A 
ATOM      9  C   UNL     1      -0.189  -0.048   0.408  0.00  0.00    +0.000 A 
ATOM     10  C   UNL     1       0.560  -1.219   0.412  0.00  0.00    +0.000 A 
ATOM     11  O   UNL     1      -0.005  -2.246   0.837  0.00  0.00    +0.000 OA
ATOM     12  N   UNL     1       1.903  -1.160   0.295  0.00  0.00    +0.000 N 
ATOM     13  C   UNL     1       2.703  -2.339   0.519  0.00  0.00    +0.000 C 
ATOM     14  C   UNL     1       2.503  -0.045  -0.189  0.00  0.00    +0.000 A 
ATOM     15  O   UNL     1       3.741   0.157  -0.002  0.00  0.00    +0.000 OA
ATOM     16  N   UNL     1       1.771   1.077  -0.400  0.00  0.00    +0.000 N 
ATOM     17  C   UNL     1       2.241   1.963  -1.461  0.00  0.00    +0.000 C 
ATOM     18  H   UNL     1      -3.774   1.519   0.159  0.00  0.00    +0.000 HD
ATOM     19  H   UNL     1      -3.033   3.033  -0.098  0.00  0.00    +0.000 HD
ENDROOT
BRANCH   4   2
ATOM      1  C   UNL     1      -3.445  -0.395  -1.259  0.00  0.00    +0.000 C 
ATOM      2  C   UNL     1      -2.470  -0.915  -0.240  0.00  0.00    +0.000 C 
ATOM      3  C   UNL     1      -3.134  -1.567   0.939  0.00  0.00    +0.000 C 
ENDBRANCH   4   2
TORSDOF 1
ENDMDL
MODEL       34
REMARK  Name = 
REMARK  4 active torsions:
REMARK  status: ('A' for Active; 'I' for Inactive)
REMARK    1  A    between atoms: C_1  and  N_2
REMARK    2  A    between atoms: N_5  and  C_6
REMARK    3  A    between atoms: N_9  and  C_10
REMARK    4  A    between atoms: N_13  and  C_14
REMARK                            x       y       z     vdW  Elec       q    Type
REMARK                         _______ _______ _______ _____ _____    ______ ____
ROOT
ATOM      1  C   UNL     1       1.573   2.756  -0.259  0.00  0.00    +0.000 C 
ATOM      2  N   UNL     1       1.390   1.322  -0.236  0.00  0.00    +0.000 N 
ATOM      3  C   UNL     1       0.190   0.724  -0.358  0.00  0.00    +0.000 A 
ATOM      4  C   UNL     1       0.433  -0.638  -0.256  0.00  0.00    +0.000 A 
ATOM      5  N   UNL     1       1.770  -0.772  -0.152  0.00  0.00    +0.000 N 
ATOM      6  C   UNL     1       2.446  -2.044  -0.108  0.00  0.00    +0.000 C 
ATOM      7  C   UNL     1       2.318   0.423   0.174  0.00  0.00    +0.000 A 
ATOM      8  O   UNL     1       3.384   0.643   0.825  0.00  0.00    +0.000 OA
ATOM      9  N   UNL     1      -0.622  -1.463  -0.048  0.00  0.00    +0.000 N 
ATOM     10  C   UNL     1      -0.395  -2.903   0.019  0.00  0.00    +0.000 C 
ATOM     11  C   UNL     1      -1.851  -0.986   0.260  0.00  0.00    +0.000 A 
ATOM     12  O   UNL     1      -2.585  -1.631   1.068  0.00  0.00    +0.000 OA
ATOM     13  N   UNL     1      -2.119   0.301  -0.054  0.00  0.00    +0.000 N 
ATOM     14  C   UNL     1      -3.458   0.808   0.226  0.00  0.00    +0.000 C 
ATOM     15  C   UNL     1      -1.118   1.127  -0.443  0.00  0.00    +0.000 A 
ATOM     16  O   UNL     1      -1.355   2.334  -0.657  0.00  0.00    +0.000 OA
ENDROOT
TORSDOF 0
ENDMDL
MODEL       35
REMARK  Name = 
REMARK  4 active torsions:
REMARK  status: ('A' for Active; 'I' for Inactive)
REMARK    1  A    between atoms: C_1  and  N_2
REMARK    2  A    between atoms: C_3  and  C_4
REMARK    3  A    between atoms: N_11  and  C_12
REMARK    4  A    between atoms: N_15  and  C_16
REMARK                            x       y       z     vdW  Elec       q    Type
REMARK                         _______ _______ _______ _____ _____    ______ ____
ROOT
ATOM      1  C   UNL     1       2.183   1.121  -1.726  0.00  0.00    +0.000 C 
ATOM      2  N   UNL     1       1.508   0.263  -0.785  0.00  0.00    +0.000 N 
ATOM      3  C   UNL     1       2.115  -0.610   0.047  0.00  0.00    +0.000 A 
ATOM      6  N   UNL     1       1.145  -1.483   0.409  0.00  0.00    +0.000 NA
ATOM      7  C   UNL     1      -0.056  -0.915   0.138  0.00  0.00    +0.000 A 
ATOM      8  C   UNL     1       0.166   0.242  -0.599  0.00  0.00    +0.000 A 
ATOM      9  C   UNL     1      -0.840   1.194  -0.732  0.00  0.00    +0.000 A 
ATOM     10  O   UNL     1      -0.458   2.371  -1.009  0.00  0.00    +0.000 OA
ATOM     11  N   UNL     1      -1.980   0.965  -0.033  0.00  0.00    +0.000 N 
ATOM     12  C   UNL     1      -2.776   2.083   0.438  0.00  0.00    +0.000 C 
ATOM     13  C   UNL     1      -2.278  -0.314   0.281  0.00  0.00    +0.000 A 
ATOM     14  O   UNL     1      -3.480  -0.576   0.542  0.00  0.00    +0.000 OA
ATOM     15  N   UNL     1      -1.329  -1.266   0.379  0.00  0.00    +0.000 N 
ATOM     16  C   UNL     1      -1.651  -2.644   0.659  0.00  0.00    +0.000 C 
ENDROOT
BRANCH   3   4
ATOM      4  C   UNL     1       3.369  -0.351   0.723  0.00  0.00    +0.000 C 
ATOM      5  N   UNL     1       4.363  -0.079   1.268  0.00  0.00    +0.000 NA
ENDBRANCH   3   4
TORSDOF 1
ENDMDL
MODEL       36
REMARK  Name = 
REMARK  2 active torsions:
REMARK  status: ('A' for Active; 'I' for Inactive)
REMARK    1  A    between atoms: C_1  and  N_2
REMARK    2  A    between atoms: N_10  and  C_11
REMARK                            x       y       z     vdW  Elec       q    Type
REMARK                         _______ _______ _______ _____ _____    ______ ____
ROOT
ATOM      1  C   UNL     1      -1.843   2.668  -0.086  0.00  0.00    +0.000 C 
ATOM      2  N   UNL     1      -1.451   1.284  -0.273  0.00  0.00    +0.000 N 
ATOM      3  C   UNL     1      -0.123   1.055  -0.423  0.00  0.00    +0.000 A 
ATOM      4  N   UNL     1       1.006   1.772  -0.301  0.00  0.00    +0.000 NA
ATOM      5  C   UNL     1       2.088   0.957  -0.232  0.00  0.00    +0.000 A 
ATOM      6  N   UNL     1       1.619  -0.311  -0.265  0.00  0.00    +0.000 N 
ATOM      7  C   UNL     1       0.278  -0.266  -0.458  0.00  0.00    +0.000 A 
ATOM      8  C   UNL     1      -0.731  -1.221  -0.506  0.00  0.00    +0.000 A 
ATOM      9  O   UNL     1      -0.361  -2.396  -0.790  0.00  0.00    +0.000 OA
ATOM     10  N   UNL     1      -1.944  -0.969   0.039  0.00  0.00    +0.000 N 
ATOM     11  C   UNL     1      -2.805  -2.075   0.437  0.00  0.00    +0.000 C 
ATOM     12  C   UNL     1      -2.255   0.318   0.235  0.00  0.00    +0.000 A 
ATOM     13  O   UNL     1      -3.225   0.584   1.006  0.00  0.00    +0.000 OA
ATOM     14  C   UNL     1       2.677  -1.282  -0.219  0.00  0.00    +0.000 C 
ATOM     15  C   UNL     1       3.516  -0.970   1.018  0.00  0.00    +0.000 C 
ATOM     16  S   UNL     1       3.553   0.850   0.818  0.00  0.00    +0.000 S 
ENDROOT
TORSDOF 0
ENDMDL
MODEL       37
REMARK  Name = 
REMARK  3 active torsions:
REMARK  status: ('A' for Active; 'I' for Inactive)
REMARK    1  A    between atoms: C_1  and  C_2
REMARK    2  A    between atoms: N_11  and  C_12
REMARK    3  A    between atoms: N_15  and  C_16
REMARK                            x       y       z     vdW  Elec       q    Type
REMARK                         _______ _______ _______ _____ _____    ______ ____
ROOT
ATOM      1  C   UNL     1       4.696   0.627   1.165  0.00  0.00    +0.000 C 
ATOM      2  C   UNL     1       3.436  -0.018   0.689  0.00  0.00    +0.000 C 
ATOM      3  N   UNL     1       3.450  -1.288   0.414  0.00  0.00    +0.000 NA
ATOM      4  N   UNL     1       2.582  -1.747  -0.595  0.00  0.00    +0.000 N 
ATOM      5  C   UNL     1       1.364  -1.025  -0.810  0.00  0.00    +0.000 A 
ATOM      6  N   UNL     1       0.183  -1.501  -1.276  0.00  0.00    +0.000 NA
ATOM      7  C   UNL     1      -0.803  -0.698  -0.811  0.00  0.00    +0.000 A 
ATOM      8  C   UNL     1      -0.136   0.404  -0.288  0.00  0.00    +0.000 A 
ATOM      9  C   UNL     1      -0.957   1.494  -0.025  0.00  0.00    +0.000 A 
ATOM     10  O   UNL     1      -0.369   2.535   0.379  0.00  0.00    +0.000 OA
ATOM     11  N   UNL     1      -2.294   1.331   0.133  0.00  0.00    +0.000 N 
ATOM     12  C   UNL     1      -3.045   2.280   0.932  0.00  0.00    +0.000 C 
ATOM     13  C   UNL     1      -2.817   0.081   0.069  0.00  0.00    +0.000 A 
ATOM     14  O   UNL     1      -3.793  -0.278   0.790  0.00  0.00    +0.000 OA
ATOM     15  N   UNL     1      -2.141  -0.847  -0.650  0.00  0.00    +0.000 N 
ATOM     16  C   UNL     1      -2.680  -2.202  -0.671  0.00  0.00    +0.000 C 
ATOM     17  N   UNL     1       1.174   0.138  -0.170  0.00  0.00    +0.000 N 
ATOM     18  C   UNL     1       2.151   0.715   0.726  0.00  0.00    +0.000 C 
ATOM     19  H   UNL     1       2.805  -2.539  -1.136  0.00  0.00    +0.000 HD
ENDROOT
TORSDOF 0
ENDMDL
MODEL       38
REMARK  Name = 
REMARK  2 active torsions:
REMARK  status: ('A' for Active; 'I' for Inactive)
REMARK    1  A    between atoms: C_1  and  N_2
REMARK    2  A    between atoms: N_10  and  C_11
REMARK                            x       y       z     vdW  Elec       q    Type
REMARK                         _______ _______ _______ _____ _____    ______ ____
ROOT
ATOM      1  C   UNL     1      -1.723  -2.739   0.402  0.00  0.00    +0.000 C 
ATOM      2  N   UNL     1      -1.574  -1.394  -0.148  0.00  0.00    +0.000 N 
ATOM      3  C   UNL     1      -0.331  -0.921  -0.399  0.00  0.00    +0.000 A 
ATOM      4  N   UNL     1       0.797  -1.528  -0.798  0.00  0.00    +0.000 NA
ATOM      5  C   UNL     1       1.820  -0.661  -0.635  0.00  0.00    +0.000 A 
ATOM      6  N   UNL     1       1.382   0.498  -0.117  0.00  0.00    +0.000 N 
ATOM      7  C   UNL     1       0.030   0.391  -0.161  0.00  0.00    +0.000 A 
ATOM      8  C   UNL     1      -1.008   1.264   0.134  0.00  0.00    +0.000 A 
ATOM      9  O   UNL     1      -0.704   2.457   0.361  0.00  0.00    +0.000 OA
ATOM     10  N   UNL     1      -2.280   0.844   0.165  0.00  0.00    +0.000 N 
ATOM     11  C   UNL     1      -3.328   1.787  -0.149  0.00  0.00    +0.000 C 
ATOM     12  C   UNL     1      -2.476  -0.484   0.269  0.00  0.00    +0.000 A 
ATOM     13  O   UNL     1      -3.680  -0.852   0.341  0.00  0.00    +0.000 OA
ATOM     14  C   UNL     1       2.199   1.360   0.722  0.00  0.00    +0.000 C 
ATOM     15  C   UNL     1       3.607   0.865   0.861  0.00  0.00    +0.000 C 
ATOM     16  N   UNL     1       4.067   0.066  -0.240  0.00  0.00    +0.000 NA
ATOM     17  N   UNL     1       3.203  -0.953  -0.607  0.00  0.00    +0.000 N 
ATOM     18  H   UNL     1       4.961  -0.351   0.020  0.00  0.00    +0.000 HD
ATOM     19  H   UNL     1       3.540  -1.848  -0.840  0.00  0.00    +0.000 HD
ENDROOT
TORSDOF 0
ENDMDL
MODEL       39
REMARK  Name = 
REMARK  6 active torsions:
REMARK  status: ('A' for Active; 'I' for Inactive)
REMARK    1  A    between atoms: C_1  and  C_2
REMARK    2  A    between atoms: C_2  and  C_3
REMARK    3  A    between atoms: C_4  and  C_5
REMARK    4  A    between atoms: C_5  and  N_6
REMARK    5  A    between atoms: N_13  and  C_14
REMARK    6  A    between atoms: N_17  and  C_18
REMARK                            x       y       z     vdW  Elec       q    Type
REMARK                         _______ _______ _______ _____ _____    ______ ____
ROOT
ATOM      6  N   UNL     1       0.956  -0.072  -0.075  0.00  0.00    +0.000 N 
ATOM      7  C   UNL     1       1.278   1.230  -0.248  0.00  0.00    +0.000 A 
ATOM      8  N   UNL     1       0.171   1.887  -0.670  0.00  0.00    +0.000 NA
ATOM      9  C   UNL     1      -0.857   1.183  -0.194  0.00  0.00    +0.000 A 
ATOM     10  C   UNL     1      -0.397  -0.123  -0.102  0.00  0.00    +0.000 A 
ATOM     11  C   UNL     1      -1.294  -1.061   0.386  0.00  0.00    +0.000 A 
ATOM     12  O   UNL     1      -0.881  -2.202   0.697  0.00  0.00    +0.000 OA
ATOM     13  N   UNL     1      -2.578  -0.770   0.618  0.00  0.00    +0.000 N 
ATOM     14  C   UNL     1      -3.565  -1.797   0.935  0.00  0.00    +0.000 C 
ATOM     15  C   UNL     1      -2.978   0.515   0.466  0.00  0.00    +0.000 A 
ATOM     16  O   UNL     1      -4.070   0.823   1.033  0.00  0.00    +0.000 OA
ATOM     17  N   UNL     1      -2.158   1.481   0.011  0.00  0.00    +0.000 N 
ATOM     18  C   UNL     1      -2.537   2.855   0.325  0.00  0.00    +0.000 C 
ENDROOT
BRANCH   6   5
ATOM      5  C   UNL     1       1.761  -1.165   0.413  0.00  0.00    +0.000 C 
BRANCH   5   4
ATOM      1  C   UNL     1       5.341  -1.556   0.546  0.00  0.00    +0.000 C 
ATOM      2  C   UNL     1       4.183  -0.644   0.273  0.00  0.00    +0.000 C 
ATOM      3  C   UNL     1       4.536   0.658  -0.384  0.00  0.00    +0.000 C 
ATOM      4  C   UNL     1       3.090  -1.241  -0.219  0.00  0.00    +0.000 C 
ENDBRANCH   5   4
ENDBRANCH   6   5
TORSDOF 2
ENDMDL
MODEL       40
REMARK  Name = 
REMARK  6 active torsions:
REMARK  status: ('A' for Active; 'I' for Inactive)
REMARK    1  A    between atoms: C_1  and  N_2
REMARK    2  A    between atoms: N_2  and  C_3
REMARK    3  A    between atoms: N_2  and  C_4
REMARK    4  A    between atoms: C_4  and  N_5
REMARK    5  A    between atoms: N_12  and  C_13
REMARK    6  A    between atoms: N_16  and  C_17
REMARK                            x       y       z     vdW  Elec       q    Type
REMARK                         _______ _______ _______ _____ _____    ______ ____
ROOT
ATOM      5  N   UNL     1       1.320  -0.838   0.198  0.00  0.00    +0.000 N 
ATOM      6  C   UNL     1       1.125  -1.920   0.990  0.00  0.00    +0.000 A 
ATOM      7  N   UNL     1      -0.202  -2.167   1.108  0.00  0.00    +0.000 NA
ATOM      8  C   UNL     1      -0.863  -1.065   0.675  0.00  0.00    +0.000 A 
ATOM      9  C   UNL     1       0.088  -0.301   0.029  0.00  0.00    +0.000 A 
ATOM     10  C   UNL     1      -0.298   0.846  -0.646  0.00  0.00    +0.000 A 
ATOM     11  O   UNL     1       0.259   1.151  -1.741  0.00  0.00    +0.000 OA
ATOM     12  N   UNL     1      -1.529   1.322  -0.335  0.00  0.00    +0.000 N 
ATOM     13  C   UNL     1      -1.825   2.680  -0.756  0.00  0.00    +0.000 C 
ATOM     14  C   UNL     1      -2.479   0.509   0.188  0.00  0.00    +0.000 A 
ATOM     15  O   UNL     1      -3.675   0.921   0.276  0.00  0.00    +0.000 OA
ATOM     16  N   UNL     1      -2.172  -0.710   0.693  0.00  0.00    +0.000 N 
ATOM     17  C   UNL     1      -3.191  -1.747   0.743  0.00  0.00    +0.000 C 
ENDROOT
BRANCH   5   4
ATOM      4  C   UNL     1       2.408  -0.586  -0.727  0.00  0.00    +0.000 C 
BRANCH   4   2
ATOM      1  C   UNL     1       3.109   1.287   0.616  0.00  0.00    +0.000 C 
ATOM      2  N   UNL     1       3.511   0.111  -0.119  0.00  0.00    +0.000 NA
ATOM      3  C   UNL     1       4.415   0.509  -1.191  0.00  0.00    +0.000 C 
ENDBRANCH   4   2
ENDBRANCH   5   4
TORSDOF 2
ENDMDL
MODEL       41
REMARK  Name = 
REMARK  6 active torsions:
REMARK  status: ('A' for Active; 'I' for Inactive)
REMARK    1  A    between atoms: C_1  and  C_2
REMARK    2  A    between atoms: C_2  and  N_3
REMARK    3  A    between atoms: C_4  and  O_5
REMARK    4  A    between atoms: O_5  and  C_6
REMARK    5  A    between atoms: N_12  and  C_13
REMARK    6  A    between atoms: N_16  and  C_17
REMARK                            x       y       z     vdW  Elec       q    Type
REMARK                         _______ _______ _______ _____ _____    ______ ____
ROOT
ATOM      3  N   UNL     1       1.451  -0.595  -0.064  0.00  0.00    +0.000 N 
ATOM      4  C   UNL     1       1.995   0.629   0.130  0.00  0.00    +0.000 A 
ATOM      7  N   UNL     1       1.069   1.584  -0.132  0.00  0.00    +0.000 NA
ATOM      8  C   UNL     1      -0.107   0.938  -0.184  0.00  0.00    +0.000 A 
ATOM      9  C   UNL     1       0.111  -0.415  -0.140  0.00  0.00    +0.000 A 
ATOM     10  C   UNL     1      -0.941  -1.286  -0.237  0.00  0.00    +0.000 A 
ATOM     11  O   UNL     1      -0.750  -2.424  -0.761  0.00  0.00    +0.000 OA
ATOM     12  N   UNL     1      -2.193  -0.816  -0.032  0.00  0.00    +0.000 N 
ATOM     13  C   UNL     1      -3.324  -1.719  -0.220  0.00  0.00    +0.000 C 
ATOM     14  C   UNL     1      -2.382   0.516   0.056  0.00  0.00    +0.000 A 
ATOM     15  O   UNL     1      -3.518   0.971   0.388  0.00  0.00    +0.000 OA
ATOM     16  N   UNL     1      -1.377   1.408  -0.110  0.00  0.00    +0.000 N 
ATOM     17  C   UNL     1      -1.666   2.706  -0.706  0.00  0.00    +0.000 C 
ENDROOT
BRANCH   3   2
ATOM      1  C   UNL     1       2.503  -2.552  -1.120  0.00  0.00    +0.000 C 
ATOM      2  C   UNL     1       2.055  -1.888   0.167  0.00  0.00    +0.000 C 
ENDBRANCH   3   2
BRANCH   4   5
ATOM      5  O   UNL     1       3.337   0.891   0.420  0.00  0.00    +0.000 OA
ATOM      6  C   UNL     1       3.737   2.052   1.137  0.00  0.00    +0.000 C 
ENDBRANCH   4   5
TORSDOF 2
ENDMDL
MODEL       42
REMARK  Name = 
REMARK  4 active torsions:
REMARK  status: ('A' for Active; 'I' for Inactive)
REMARK    1  A    between atoms: C_2  and  C_3
REMARK    2  A    between atoms: C_3  and  N_4
REMARK    3  A    between atoms: N_11  and  C_12
REMARK    4  A    between atoms: N_15  and  C_16
REMARK                            x       y       z     vdW  Elec       q    Type
REMARK                         _______ _______ _______ _____ _____    ______ ____
ROOT
ATOM      4  N   UNL     1       1.520  -0.781  -0.117  0.00  0.00    +0.000 N 
ATOM      5  C   UNL     1       1.341  -2.118  -0.238  0.00  0.00    +0.000 A 
ATOM      6  N   UNL     1       0.043  -2.359  -0.540  0.00  0.00    +0.000 NA
ATOM      7  C   UNL     1      -0.641  -1.189  -0.580  0.00  0.00    +0.000 A 
ATOM      8  C   UNL     1       0.301  -0.215  -0.273  0.00  0.00    +0.000 A 
ATOM      9  C   UNL     1      -0.122   1.109  -0.249  0.00  0.00    +0.000 A 
ATOM     10  O   UNL     1       0.773   2.007  -0.210  0.00  0.00    +0.000 OA
ATOM     11  N   UNL     1      -1.436   1.403  -0.088  0.00  0.00    +0.000 N 
ATOM     12  C   UNL     1      -1.795   2.659   0.543  0.00  0.00    +0.000 C 
ATOM     13  C   UNL     1      -2.252   0.342   0.124  0.00  0.00    +0.000 A 
ATOM     14  O   UNL     1      -3.391   0.558   0.590  0.00  0.00    +0.000 OA
ATOM     15  N   UNL     1      -1.946  -0.873  -0.388  0.00  0.00    +0.000 N 
ATOM     16  C   UNL     1      -2.906  -1.950  -0.459  0.00  0.00    +0.000 C 
ENDROOT
BRANCH   4   3
ATOM      3  C   UNL     1       2.524  -0.223   0.786  0.00  0.00    +0.000 C 
BRANCH   3   2
ATOM      1  C   UNL     1       4.365   1.223  -0.399  0.00  0.00    +0.000 C 
ATOM      2  C   UNL     1       3.621   0.409   0.063  0.00  0.00    +0.000 C 
ENDBRANCH   3   2
ENDBRANCH   4   3
TORSDOF 2
ENDMDL
MODEL       43
REMARK  Name = 
REMARK  5 active torsions:
REMARK  status: ('A' for Active; 'I' for Inactive)
REMARK    1  A    between atoms: C_1  and  O_2
REMARK    2  A    between atoms: O_2  and  C_3
REMARK    3  A    between atoms: N_9  and  C_10
REMARK    4  A    between atoms: N_13  and  C_14
REMARK    5  A    between atoms: N_15  and  C_16
REMARK                            x       y       z     vdW  Elec       q    Type
REMARK                         _______ _______ _______ _____ _____    ______ ____
ROOT
ATOM      3  C   UNL     1       2.083   0.766  -0.181  0.00  0.00    +0.000 A 
ATOM      4  N   UNL     1       1.093   1.691  -0.210  0.00  0.00    +0.000 NA
ATOM      5  C   UNL     1      -0.073   1.023  -0.218  0.00  0.00    +0.000 A 
ATOM      6  C   UNL     1       0.232  -0.250  -0.679  0.00  0.00    +0.000 A 
ATOM      7  C   UNL     1      -0.728  -1.253  -0.594  0.00  0.00    +0.000 A 
ATOM      8  O   UNL     1      -0.523  -2.339  -1.206  0.00  0.00    +0.000 OA
ATOM      9  N   UNL     1      -1.896  -1.043   0.047  0.00  0.00    +0.000 N 
ATOM     10  C   UNL     1      -2.761  -2.176   0.365  0.00  0.00    +0.000 C 
ATOM     11  C   UNL     1      -2.203   0.219   0.439  0.00  0.00    +0.000 A 
ATOM     12  O   UNL     1      -2.962   0.280   1.456  0.00  0.00    +0.000 OA
ATOM     13  N   UNL     1      -1.334   1.226   0.177  0.00  0.00    +0.000 N 
ATOM     14  C   UNL     1      -1.663   2.558   0.675  0.00  0.00    +0.000 C 
ATOM     15  N   UNL     1       1.571  -0.270  -0.892  0.00  0.00    +0.000 N 
ATOM     16  C   UNL     1       2.328  -1.416  -1.387  0.00  0.00    +0.000 C 
ENDROOT
BRANCH   3   2
ATOM      1  C   UNL     1       3.521   0.169   1.731  0.00  0.00    +0.000 C 
ATOM      2  O   UNL     1       3.316   0.815   0.476  0.00  0.00    +0.000 OA
ENDBRANCH   3   2
TORSDOF 1
ENDMDL
MODEL       44
REMARK  Name = 
REMARK  4 active torsions:
REMARK  status: ('A' for Active; 'I' for Inactive)
REMARK    1  A    between atoms: C_1  and  N_2
REMARK    2  A    between atoms: N_9  and  C_10
REMARK    3  A    between atoms: N_13  and  C_14
REMARK    4  A    between atoms: N_15  and  C_16
REMARK                            x       y       z     vdW  Elec       q    Type
REMARK                         _______ _______ _______ _____ _____    ______ ____
ROOT
ATOM      1  C   UNL     1       3.525  -0.270   1.833  0.00  0.00    +0.000 C 
ATOM      2  N   UNL     1       3.465  -0.309   0.376  0.00  0.00    +0.000 N 
ATOM      3  C   UNL     1       2.210  -0.301  -0.309  0.00  0.00    +0.000 A 
ATOM      4  N   UNL     1       1.345  -1.332  -0.198  0.00  0.00    +0.000 NA
ATOM      5  C   UNL     1       0.098  -0.900  -0.508  0.00  0.00    +0.000 A 
ATOM      6  C   UNL     1       0.173   0.481  -0.626  0.00  0.00    +0.000 A 
ATOM      7  C   UNL     1      -0.965   1.246  -0.413  0.00  0.00    +0.000 A 
ATOM      8  O   UNL     1      -0.829   2.495  -0.315  0.00  0.00    +0.000 OA
ATOM      9  N   UNL     1      -2.036   0.689   0.203  0.00  0.00    +0.000 N 
ATOM     10  C   UNL     1      -2.873   1.437   1.137  0.00  0.00    +0.000 C 
ATOM     11  C   UNL     1      -2.125  -0.662   0.255  0.00  0.00    +0.000 A 
ATOM     12  O   UNL     1      -3.127  -1.162   0.806  0.00  0.00    +0.000 OA
ATOM     13  N   UNL     1      -1.151  -1.395  -0.340  0.00  0.00    +0.000 N 
ATOM     14  C   UNL     1      -1.247  -2.851  -0.302  0.00  0.00    +0.000 C 
ATOM     15  N   UNL     1       1.494   0.754  -0.756  0.00  0.00    +0.000 N 
ATOM     16  C   UNL     1       2.043   2.079  -0.845  0.00  0.00    +0.000 C 
ATOM     17  H   UNL     1       4.301  -0.343  -0.144  0.00  0.00    +0.000 HD
ENDROOT
TORSDOF 0
ENDMDL
MODEL       45
REMARK  Name = 
REMARK  5 active torsions:
REMARK  status: ('A' for Active; 'I' for Inactive)
REMARK    1  A    between atoms: C_1  and  C_2
REMARK    2  A    between atoms: C_2  and  N_3
REMARK    3  A    between atoms: N_6  and  C_7
REMARK    4  A    between atoms: N_10  and  C_11
REMARK    5  A    between atoms: N_14  and  C_15
REMARK                            x       y       z     vdW  Elec       q    Type
REMARK                         _______ _______ _______ _____ _____    ______ ____
ROOT
ATOM      3  N   UNL     1      -1.676  -0.182  -0.396  0.00  0.00    +0.000 N 
ATOM      4  C   UNL     1      -1.933   1.091  -0.007  0.00  0.00    +0.000 A 
ATOM      5  O   UNL     1      -2.911   1.383   0.749  0.00  0.00    +0.000 OA
ATOM      6  N   UNL     1      -0.767   1.769  -0.149  0.00  0.00    +0.000 N 
ATOM      7  C   UNL     1      -0.575   3.135   0.331  0.00  0.00    +0.000 C 
ATOM      8  C   UNL     1       0.228   0.890  -0.419  0.00  0.00    +0.000 A 
ATOM      9  C   UNL     1      -0.341  -0.375  -0.500  0.00  0.00    +0.000 A 
ATOM     10  N   UNL     1       0.493  -1.433  -0.354  0.00  0.00    +0.000 N 
ATOM     11  C   UNL     1      -0.144  -2.744  -0.278  0.00  0.00    +0.000 C 
ATOM     12  C   UNL     1       1.693  -1.317   0.265  0.00  0.00    +0.000 A 
ATOM     13  O   UNL     1       2.149  -2.159   1.067  0.00  0.00    +0.000 OA
ATOM     14  N   UNL     1       2.296  -0.105   0.247  0.00  0.00    +0.000 N 
ATOM     15  C   UNL     1       3.730   0.008   0.427  0.00  0.00    +0.000 C 
ATOM     16  C   UNL     1       1.606   0.944  -0.258  0.00  0.00    +0.000 A 
ATOM     17  O   UNL     1       2.139   2.076  -0.302  0.00  0.00    +0.000 OA
ENDROOT
BRANCH   3   2
ATOM      1  C   UNL     1      -3.355  -1.805   0.379  0.00  0.00    +0.000 C 
ATOM      2  C   UNL     1      -2.633  -1.174  -0.802  0.00  0.00    +0.000 C 
ENDBRANCH   3   2
TORSDOF 1
ENDMDL
MODEL       46
REMARK  Name = 
REMARK  6 active torsions:
REMARK  status: ('A' for Active; 'I' for Inactive)
REMARK    1  A    between atoms: C_1  and  C_2
REMARK    2  A    between atoms: C_2  and  O_3
REMARK    3  A    between atoms: C_2  and  C_4
REMARK    4  A    between atoms: N_10  and  C_11
REMARK    5  A    between atoms: N_14  and  C_15
REMARK    6  A    between atoms: N_16  and  C_17
REMARK                            x       y       z     vdW  Elec       q    Type
REMARK                         _______ _______ _______ _____ _____    ______ ____
ROOT
ATOM      4  C   UNL     1      -1.928   0.097  -0.521  0.00  0.00    +0.000 A 
ATOM      5  N   UNL     1      -1.096   0.835  -1.303  0.00  0.00    +0.000 NA
ATOM      6  C   UNL     1       0.198   0.517  -1.045  0.00  0.00    +0.000 A 
ATOM      7  C   UNL     1       0.111  -0.784  -0.559  0.00  0.00    +0.000 A 
ATOM      8  C   UNL     1       1.289  -1.282  -0.011  0.00  0.00    +0.000 A 
ATOM      9  O   UNL     1       1.217  -2.432   0.521  0.00  0.00    +0.000 OA
ATOM     10  N   UNL     1       2.336  -0.477   0.299  0.00  0.00    +0.000 N 
ATOM     11  C   UNL     1       3.278  -0.892   1.337  0.00  0.00    +0.000 C 
ATOM     12  C   UNL     1       2.265   0.857   0.060  0.00  0.00    +0.000 A 
ATOM     13  O   UNL     1       2.714   1.681   0.916  0.00  0.00    +0.000 OA
ATOM     14  N   UNL     1       1.355   1.216  -0.882  0.00  0.00    +0.000 N 
ATOM     15  C   UNL     1       1.325   2.648  -1.180  0.00  0.00    +0.000 C 
ATOM     16  N   UNL     1      -1.191  -0.922  -0.167  0.00  0.00    +0.000 N 
ATOM     17  C   UNL     1      -1.751  -1.980   0.673  0.00  0.00    +0.000 C 
ENDROOT
BRANCH   4   2
ATOM      1  C   UNL     1      -2.953  -0.118   1.697  0.00  0.00    +0.000 C 
ATOM      2  C   UNL     1      -3.003   0.900   0.391  0.00  0.00    +0.000 C 
BRANCH   2   3
ATOM      3  O   UNL     1      -4.167   0.136  -0.226  0.00  0.00    +0.000 OA
ATOM     18  H   UNL     1      -3.971  -0.814  -0.219  0.00  0.00    +0.000 HD
ENDBRANCH   2   3
ENDBRANCH   4   2
TORSDOF 2
ENDMDL
MODEL       47
REMARK  Name = 
REMARK  4 active torsions:
REMARK  status: ('A' for Active; 'I' for Inactive)
REMARK    1  A    between atoms: C_2  and  C_3
REMARK    2  A    between atoms: C_3  and  N_4
REMARK    3  A    between atoms: N_11  and  C_12
REMARK    4  A    between atoms: N_13  and  C_14
REMARK                            x       y       z     vdW  Elec       q    Type
REMARK                         _______ _______ _______ _____ _____    ______ ____
ROOT
ATOM      4  N   UNL     1       1.065  -0.222   0.718  0.00  0.00    +0.000 N 
ATOM      5  C   UNL     1       0.192  -0.960  -0.010  0.00  0.00    +0.000 A 
ATOM      6  O   UNL     1       0.388  -2.194  -0.230  0.00  0.00    +0.000 OA
ATOM      7  C   UNL     1      -1.082  -0.485  -0.282  0.00  0.00    +0.000 A 
ATOM      8  C   UNL     1      -1.198   0.892  -0.436  0.00  0.00    +0.000 A 
ATOM      9  N   UNL     1      -2.526   1.123  -0.546  0.00  0.00    +0.000 NA
ATOM     10  C   UNL     1      -3.222   0.004  -0.246  0.00  0.00    +0.000 A 
ATOM     11  N   UNL     1      -2.328  -1.014  -0.221  0.00  0.00    +0.000 N 
ATOM     12  C   UNL     1      -2.608  -2.441  -0.128  0.00  0.00    +0.000 C 
ATOM     13  N   UNL     1      -0.140   1.642  -0.039  0.00  0.00    +0.000 N 
ATOM     14  C   UNL     1      -0.243   3.094  -0.123  0.00  0.00    +0.000 C 
ATOM     15  C   UNL     1       0.867   1.119   0.695  0.00  0.00    +0.000 A 
ATOM     16  O   UNL     1       1.503   1.782   1.559  0.00  0.00    +0.000 OA
ENDROOT
BRANCH   4   3
ATOM      3  C   UNL     1       2.413  -0.724   0.927  0.00  0.00    +0.000 C 
BRANCH   3   2
ATOM      1  C   UNL     1       3.781  -0.703  -1.319  0.00  0.00    +0.000 C 
ATOM      2  C   UNL     1       3.139  -0.915  -0.319  0.00  0.00    +0.000 C 
ENDBRANCH   3   2
ENDBRANCH   4   3
TORSDOF 2
ENDMDL
MODEL       48
REMARK  Name = 
REMARK  6 active torsions:
REMARK  status: ('A' for Active; 'I' for Inactive)
REMARK    1  A    between atoms: C_1  and  N_2
REMARK    2  A    between atoms: N_6  and  C_7
REMARK    3  A    between atoms: C_7  and  C_8
REMARK    4  A    between atoms: C_8  and  C_9
REMARK    5  A    between atoms: C_9  and  N_10
REMARK    6  A    between atoms: N_14  and  C_15
REMARK                            x       y       z     vdW  Elec       q    Type
REMARK                         _______ _______ _______ _____ _____    ______ ____
ROOT
ATOM      1  C   UNL     1      -2.655  -1.205   1.994  0.00  0.00    +0.000 C 
ATOM      2  N   UNL     1      -1.810  -0.475   1.072  0.00  0.00    +0.000 N 
ATOM      3  C   UNL     1      -0.770  -1.104   0.473  0.00  0.00    +0.000 A 
ATOM      4  N   UNL     1      -0.056  -2.211   0.773  0.00  0.00    +0.000 NA
ATOM      5  C   UNL     1       1.026  -2.283  -0.040  0.00  0.00    +0.000 A 
ATOM      6  N   UNL     1       1.196  -1.028  -0.516  0.00  0.00    +0.000 N 
ATOM     11  C   UNL     1      -0.060  -0.522  -0.569  0.00  0.00    +0.000 A 
ATOM     12  C   UNL     1      -0.576   0.635  -1.134  0.00  0.00    +0.000 A 
ATOM     13  O   UNL     1       0.038   1.229  -2.063  0.00  0.00    +0.000 OA
ATOM     14  N   UNL     1      -1.735   1.100  -0.655  0.00  0.00    +0.000 N 
ATOM     15  C   UNL     1      -2.455   2.175  -1.333  0.00  0.00    +0.000 C 
ATOM     16  C   UNL     1      -2.136   0.744   0.578  0.00  0.00    +0.000 A 
ATOM     17  O   UNL     1      -2.845   1.468   1.308  0.00  0.00    +0.000 OA
ENDROOT
BRANCH   6   7
ATOM      7  C   UNL     1       2.332  -0.479  -1.216  0.00  0.00    +0.000 C 
BRANCH   7   8
ATOM      8  C   UNL     1       3.551  -0.338  -0.354  0.00  0.00    +0.000 C 
BRANCH   8   9
ATOM      9  C   UNL     1       3.310   0.444   0.909  0.00  0.00    +0.000 C 
BRANCH   9  10
ATOM     10  N   UNL     1       3.644   1.850   0.771  0.00  0.00    +0.000 NA
ATOM     18  H   UNL     1       4.636   1.945   0.556  0.00  0.00    +0.000 HD
ATOM     19  H   UNL     1       3.437   2.336   1.644  0.00  0.00    +0.000 HD
ENDBRANCH   9  10
ENDBRANCH   8   9
ENDBRANCH   7   8
ENDBRANCH   6   7
TORSDOF 4
ENDMDL
MODEL       49
REMARK  Name = 
REMARK  4 active torsions:
REMARK  status: ('A' for Active; 'I' for Inactive)
REMARK    1  A    between atoms: C_2  and  C_3
REMARK    2  A    between atoms: C_3  and  N_4
REMARK    3  A    between atoms: N_10  and  C_11
REMARK    4  A    between atoms: N_14  and  C_15
REMARK                            x       y       z     vdW  Elec       q    Type
REMARK                         _______ _______ _______ _____ _____    ______ ____
ROOT
ATOM      4  N   UNL     1      -1.345   0.017   0.395  0.00  0.00    +0.000 N 
ATOM      5  C   UNL     1      -0.016   0.205   0.273  0.00  0.00    +0.000 A 
ATOM      6  C   UNL     1       0.537  -1.057   0.088  0.00  0.00    +0.000 A 
ATOM      7  N   UNL     1      -0.495  -1.925   0.070  0.00  0.00    +0.000 N 
ATOM      8  C   UNL     1      -1.672  -1.255   0.090  0.00  0.00    +0.000 A 
ATOM      9  O   UNL     1      -2.785  -1.596  -0.404  0.00  0.00    +0.000 OA
ATOM     10  N   UNL     1       1.802  -1.134  -0.391  0.00  0.00    +0.000 N 
ATOM     11  C   UNL     1       2.240  -2.375  -1.026  0.00  0.00    +0.000 C 
ATOM     12  C   UNL     1       2.512  -0.017  -0.616  0.00  0.00    +0.000 A 
ATOM     13  O   UNL     1       3.728  -0.104  -0.955  0.00  0.00    +0.000 OA
ATOM     14  N   UNL     1       2.030   1.228  -0.413  0.00  0.00    +0.000 N 
ATOM     15  C   UNL     1       2.934   2.297  -0.026  0.00  0.00    +0.000 C 
ATOM     16  C   UNL     1       0.735   1.319  -0.056  0.00  0.00    +0.000 A 
ATOM     17  O   UNL     1       0.199   2.447   0.161  0.00  0.00    +0.000 OA
ATOM     18  H   UNL     1      -0.406  -2.905   0.047  0.00  0.00    +0.000 HD
ENDROOT
BRANCH   4   3
ATOM      3  C   UNL     1      -2.214   0.935   1.111  0.00  0.00    +0.000 C 
BRANCH   3   2
ATOM      1  C   UNL     1      -4.562   0.203   1.420  0.00  0.00    +0.000 C 
ATOM      2  C   UNL     1      -3.628   0.813   0.695  0.00  0.00    +0.000 C 
ENDBRANCH   3   2
ENDBRANCH   4   3
TORSDOF 2
ENDMDL
MODEL       50
REMARK  Name = 
REMARK  5 active torsions:
REMARK  status: ('A' for Active; 'I' for Inactive)
REMARK    1  A    between atoms: C_2  and  C_3
REMARK    2  A    between atoms: C_2  and  C_4
REMARK    3  A    between atoms: C_4  and  N_5
REMARK    4  A    between atoms: N_13  and  C_14
REMARK    5  A    between atoms: N_17  and  C_18
REMARK                            x       y       z     vdW  Elec       q    Type
REMARK                         _______ _______ _______ _____ _____    ______ ____
ROOT
ATOM      5  N   UNL     1       1.207   0.408  -0.950  0.00  0.00    +0.000 N 
ATOM      6  C   UNL     1       1.314   1.742  -0.738  0.00  0.00    +0.000 A 
ATOM      7  N   UNL     1       2.566   2.430  -0.669  0.00  0.00    +0.000 N 
ATOM      8  N   UNL     1       0.226   2.157  -0.043  0.00  0.00    +0.000 NA
ATOM      9  C   UNL     1      -0.691   1.171  -0.015  0.00  0.00    +0.000 A 
ATOM     10  C   UNL     1      -0.081   0.116  -0.681  0.00  0.00    +0.000 A 
ATOM     11  C   UNL     1      -0.806  -1.022  -0.894  0.00  0.00    +0.000 A 
ATOM     12  O   UNL     1      -0.317  -1.911  -1.627  0.00  0.00    +0.000 OA
ATOM     13  N   UNL     1      -1.967  -1.151  -0.223  0.00  0.00    +0.000 N 
ATOM     14  C   UNL     1      -2.811  -2.282  -0.597  0.00  0.00    +0.000 C 
ATOM     15  C   UNL     1      -2.354  -0.231   0.683  0.00  0.00    +0.000 A 
ATOM     16  O   UNL     1      -3.509  -0.366   1.172  0.00  0.00    +0.000 OA
ATOM     17  N   UNL     1      -1.767   0.983   0.790  0.00  0.00    +0.000 N 
ATOM     18  C   UNL     1      -1.862   1.611   2.106  0.00  0.00    +0.000 C 
ATOM     19  H   UNL     1       3.336   2.103  -1.186  0.00  0.00    +0.000 HD
ATOM     20  H   UNL     1       2.656   3.231  -0.104  0.00  0.00    +0.000 HD
ENDROOT
BRANCH   5   4
ATOM      4  C   UNL     1       2.296  -0.566  -0.976  0.00  0.00    +0.000 C 
BRANCH   4   2
ATOM      1  C   UNL     1       1.791  -1.393   1.300  0.00  0.00    +0.000 C 
ATOM      2  C   UNL     1       2.695  -0.953   0.416  0.00  0.00    +0.000 C 
ATOM      3  C   UNL     1       4.070  -0.746   0.944  0.00  0.00    +0.000 C 
ENDBRANCH   4   2
ENDBRANCH   5   4
TORSDOF 2
ENDMDL
MODEL       51
REMARK  Name = 
REMARK  5 active torsions:
REMARK  status: ('A' for Active; 'I' for Inactive)
REMARK    1  A    between atoms: C_1  and  C_2
REMARK    2  A    between atoms: C_2  and  C_3
REMARK    3  A    between atoms: C_2  and  N_5
REMARK    4  A    between atoms: N_12  and  C_13
REMARK    5  A    between atoms: N_16  and  C_17
REMARK                            x       y       z     vdW  Elec       q    Type
REMARK                         _______ _______ _______ _____ _____    ______ ____
ROOT
ATOM      5  N   UNL     1       1.377  -0.686   0.431  0.00  0.00    +0.000 N 
ATOM      6  C   UNL     1       1.217  -1.868   1.088  0.00  0.00    +0.000 A 
ATOM      7  N   UNL     1      -0.105  -2.130   1.237  0.00  0.00    +0.000 NA
ATOM      8  C   UNL     1      -0.769  -1.035   0.833  0.00  0.00    +0.000 A 
ATOM      9  C   UNL     1       0.164  -0.324   0.083  0.00  0.00    +0.000 A 
ATOM     10  C   UNL     1      -0.138   0.885  -0.534  0.00  0.00    +0.000 A 
ATOM     11  O   UNL     1       0.713   1.809  -0.349  0.00  0.00    +0.000 OA
ATOM     12  N   UNL     1      -1.427   1.298  -0.429  0.00  0.00    +0.000 N 
ATOM     13  C   UNL     1      -1.795   2.706  -0.555  0.00  0.00    +0.000 C 
ATOM     14  C   UNL     1      -2.367   0.359  -0.156  0.00  0.00    +0.000 A 
ATOM     15  O   UNL     1      -3.575   0.653  -0.319  0.00  0.00    +0.000 OA
ATOM     16  N   UNL     1      -2.059  -0.786   0.500  0.00  0.00    +0.000 N 
ATOM     17  C   UNL     1      -3.043  -1.844   0.470  0.00  0.00    +0.000 C 
ENDROOT
BRANCH   5   2
ATOM      1  C   UNL     1       1.847  -0.156  -1.936  0.00  0.00    +0.000 C 
ATOM      2  C   UNL     1       2.609  -0.743  -0.575  0.00  0.00    +0.000 C 
BRANCH   2   3
ATOM      3  C   UNL     1       3.228   0.682  -0.152  0.00  0.00    +0.000 C 
ATOM      4  N   UNL     1       4.126   1.180   0.362  0.00  0.00    +0.000 NA
ENDBRANCH   2   3
ENDBRANCH   5   2
TORSDOF 2
ENDMDL
MODEL       52
REMARK  Name = 
REMARK  5 active torsions:
REMARK  status: ('A' for Active; 'I' for Inactive)
REMARK    1  A    between atoms: C_1  and  C_2
REMARK    2  A    between atoms: C_2  and  C_3
REMARK    3  A    between atoms: C_2  and  N_5
REMARK    4  A    between atoms: N_12  and  C_13
REMARK    5  A    between atoms: N_16  and  C_17
REMARK                            x       y       z     vdW  Elec       q    Type
REMARK                         _______ _______ _______ _____ _____    ______ ____
ROOT
ATOM      5  N   UNL     1       1.362  -0.620  -0.690  0.00  0.00    +0.000 N 
ATOM      6  C   UNL     1       1.303  -1.780  -1.270  0.00  0.00    +0.000 A 
ATOM      7  N   UNL     1       0.041  -2.235  -1.043  0.00  0.00    +0.000 NA
ATOM      8  C   UNL     1      -0.772  -1.195  -0.723  0.00  0.00    +0.000 A 
ATOM      9  C   UNL     1       0.107  -0.113  -0.800  0.00  0.00    +0.000 A 
ATOM     10  C   UNL     1      -0.341   1.161  -0.446  0.00  0.00    +0.000 A 
ATOM     11  O   UNL     1       0.208   2.110  -1.067  0.00  0.00    +0.000 OA
ATOM     12  N   UNL     1      -1.575   1.233   0.117  0.00  0.00    +0.000 N 
ATOM     13  C   UNL     1      -2.018   2.561   0.477  0.00  0.00    +0.000 C 
ATOM     14  C   UNL     1      -2.142   0.106   0.627  0.00  0.00    +0.000 A 
ATOM     15  O   UNL     1      -2.682   0.236   1.769  0.00  0.00    +0.000 OA
ATOM     16  N   UNL     1      -1.773  -1.130   0.200  0.00  0.00    +0.000 N 
ATOM     17  C   UNL     1      -2.325  -2.331   0.830  0.00  0.00    +0.000 C 
ENDROOT
BRANCH   5   2
ATOM      1  C   UNL     1       3.561  -0.855   0.032  0.00  0.00    +0.000 C 
ATOM      2  C   UNL     1       2.596   0.340  -0.571  0.00  0.00    +0.000 C 
BRANCH   2   3
ATOM      3  C   UNL     1       2.173   0.812   0.900  0.00  0.00    +0.000 C 
ATOM      4  N   UNL     1       2.275   1.700   1.657  0.00  0.00    +0.000 NA
ENDBRANCH   2   3
ENDBRANCH   5   2
TORSDOF 2
ENDMDL
MODEL       53
REMARK  Name = 
REMARK  5 active torsions:
REMARK  status: ('A' for Active; 'I' for Inactive)
REMARK    1  A    between atoms: C_1  and  N_2
REMARK    2  A    between atoms: C_3  and  C_4
REMARK    3  A    between atoms: C_4  and  N_5
REMARK    4  A    between atoms: N_11  and  C_12
REMARK    5  A    between atoms: N_15  and  C_16
REMARK                            x       y       z     vdW  Elec       q    Type
REMARK                         _______ _______ _______ _____ _____    ______ ____
ROOT
ATOM      1  C   UNL     1       2.052  -2.058  -0.242  0.00  0.00    +0.000 C 
ATOM      2  N   UNL     1       1.488  -0.729  -0.236  0.00  0.00    +0.000 N 
ATOM      3  C   UNL     1       2.165   0.415   0.028  0.00  0.00    +0.000 A 
ATOM      6  N   UNL     1       1.298   1.395  -0.326  0.00  0.00    +0.000 NA
ATOM      7  C   UNL     1       0.035   0.918  -0.219  0.00  0.00    +0.000 A 
ATOM      8  C   UNL     1       0.183  -0.460  -0.300  0.00  0.00    +0.000 A 
ATOM      9  C   UNL     1      -0.964  -1.209  -0.533  0.00  0.00    +0.000 A 
ATOM     10  O   UNL     1      -0.877  -2.453  -0.762  0.00  0.00    +0.000 OA
ATOM     11  N   UNL     1      -2.128  -0.643  -0.130  0.00  0.00    +0.000 N 
ATOM     12  C   UNL     1      -3.238  -1.508   0.262  0.00  0.00    +0.000 C 
ATOM     13  C   UNL     1      -2.189   0.662   0.230  0.00  0.00    +0.000 A 
ATOM     14  O   UNL     1      -3.197   1.123   0.845  0.00  0.00    +0.000 OA
ATOM     15  N   UNL     1      -1.196   1.486  -0.183  0.00  0.00    +0.000 N 
ATOM     16  C   UNL     1      -1.259   2.845   0.347  0.00  0.00    +0.000 C 
ENDROOT
BRANCH   3   4
ATOM      4  C   UNL     1       3.392   0.528   0.876  0.00  0.00    +0.000 C 
BRANCH   4   5
ATOM      5  N   UNL     1       4.435  -0.312   0.342  0.00  0.00    +0.000 NA
ATOM     17  H   UNL     1       4.120  -1.283   0.337  0.00  0.00    +0.000 HD
ATOM     18  H   UNL     1       5.269  -0.229   0.923  0.00  0.00    +0.000 HD
ENDBRANCH   4   5
ENDBRANCH   3   4
TORSDOF 2
ENDMDL
MODEL       54
REMARK  Name = 
REMARK  3 active torsions:
REMARK  status: ('A' for Active; 'I' for Inactive)
REMARK    1  A    between atoms: C_1  and  N_2
REMARK    2  A    between atoms: N_13  and  C_14
REMARK    3  A    between atoms: N_17  and  C_18
REMARK                            x       y       z     vdW  Elec       q    Type
REMARK                         _______ _______ _______ _____ _____    ______ ____
ROOT
ATOM      1  C   UNL     1       4.084   1.242  -0.396  0.00  0.00    +0.000 C 
ATOM      2  N   UNL     1       3.105   0.175  -0.584  0.00  0.00    +0.000 N 
ATOM      3  C   UNL     1       3.611  -1.186  -0.700  0.00  0.00    +0.000 C 
ATOM      4  C   UNL     1       2.515  -2.210  -0.582  0.00  0.00    +0.000 C 
ATOM      5  C   UNL     1       1.592  -1.949   0.591  0.00  0.00    +0.000 C 
ATOM      6  N   UNL     1       1.074  -0.590   0.526  0.00  0.00    +0.000 N 
ATOM      7  C   UNL     1       1.759   0.348  -0.162  0.00  0.00    +0.000 A 
ATOM      8  N   UNL     1       0.967   1.423  -0.387  0.00  0.00    +0.000 NA
ATOM      9  C   UNL     1      -0.299   1.015  -0.168  0.00  0.00    +0.000 A 
ATOM     10  C   UNL     1      -0.190  -0.113   0.633  0.00  0.00    +0.000 A 
ATOM     11  C   UNL     1      -1.364  -0.601   1.179  0.00  0.00    +0.000 A 
ATOM     12  O   UNL     1      -1.271  -1.640   1.871  0.00  0.00    +0.000 OA
ATOM     13  N   UNL     1      -2.587  -0.235   0.723  0.00  0.00    +0.000 N 
ATOM     14  C   UNL     1      -3.676  -1.209   0.717  0.00  0.00    +0.000 C 
ATOM     15  C   UNL     1      -2.590   0.643  -0.309  0.00  0.00    +0.000 A 
ATOM     16  O   UNL     1      -3.590   0.781  -1.067  0.00  0.00    +0.000 OA
ATOM     17  N   UNL     1      -1.522   1.430  -0.578  0.00  0.00    +0.000 N 
ATOM     18  C   UNL     1      -1.618   2.675  -1.308  0.00  0.00    +0.000 C 
ENDROOT
TORSDOF 0
ENDMDL
MODEL       55
REMARK  Name = 
REMARK  5 active torsions:
REMARK  status: ('A' for Active; 'I' for Inactive)
REMARK    1  A    between atoms: C_1  and  C_2
REMARK    2  A    between atoms: C_2  and  N_3
REMARK    3  A    between atoms: C_4  and  C_5
REMARK    4  A    between atoms: N_12  and  C_13
REMARK    5  A    between atoms: N_16  and  C_17
REMARK                            x       y       z     vdW  Elec       q    Type
REMARK                         _______ _______ _______ _____ _____    ______ ____
ROOT
ATOM      3  N   UNL     1       1.467  -0.328  -0.291  0.00  0.00    +0.000 N 
ATOM      4  C   UNL     1       1.934   0.888   0.084  0.00  0.00    +0.000 A 
ATOM      7  N   UNL     1       0.868   1.699   0.282  0.00  0.00    +0.000 NA
ATOM      8  C   UNL     1      -0.229   1.040  -0.157  0.00  0.00    +0.000 A 
ATOM      9  C   UNL     1       0.121  -0.274  -0.442  0.00  0.00    +0.000 A 
ATOM     10  C   UNL     1      -0.900  -1.214  -0.365  0.00  0.00    +0.000 A 
ATOM     11  O   UNL     1      -0.634  -2.398  -0.649  0.00  0.00    +0.000 OA
ATOM     12  N   UNL     1      -2.116  -0.904   0.131  0.00  0.00    +0.000 N 
ATOM     13  C   UNL     1      -2.901  -1.893   0.853  0.00  0.00    +0.000 C 
ATOM     14  C   UNL     1      -2.462   0.396   0.255  0.00  0.00    +0.000 A 
ATOM     15  O   UNL     1      -3.692   0.663   0.381  0.00  0.00    +0.000 OA
ATOM     16  N   UNL     1      -1.535   1.346   0.030  0.00  0.00    +0.000 N 
ATOM     17  C   UNL     1      -1.940   2.741  -0.118  0.00  0.00    +0.000 C 
ENDROOT
BRANCH   3   2
ATOM      1  C   UNL     1       2.897  -1.603  -1.837  0.00  0.00    +0.000 C 
ATOM      2  C   UNL     1       2.216  -1.552  -0.501  0.00  0.00    +0.000 C 
ENDBRANCH   3   2
BRANCH   4   5
ATOM      5  C   UNL     1       3.264   1.046   0.680  0.00  0.00    +0.000 C 
ATOM      6  O   UNL     1       3.641   0.345   1.662  0.00  0.00    +0.000 OA
ENDBRANCH   4   5
TORSDOF 2
ENDMDL
MODEL       56
REMARK  Name = 
REMARK  6 active torsions:
REMARK  status: ('A' for Active; 'I' for Inactive)
REMARK    1  A    between atoms: C_1  and  N_2
REMARK    2  A    between atoms: C_3  and  C_4
REMARK    3  A    between atoms: C_5  and  C_6
REMARK    4  A    between atoms: C_6  and  O_7
REMARK    5  A    between atoms: N_13  and  C_14
REMARK    6  A    between atoms: N_17  and  C_18
REMARK                            x       y       z     vdW  Elec       q    Type
REMARK                         _______ _______ _______ _____ _____    ______ ____
ROOT
ATOM      1  C   UNL     1       0.724  -2.199   1.611  0.00  0.00    +0.000 C 
ATOM      2  N   UNL     1       0.467  -1.288   0.509  0.00  0.00    +0.000 N 
ATOM      3  C   UNL     1       1.441  -0.749  -0.263  0.00  0.00    +0.000 A 
ATOM      8  N   UNL     1       0.752  -0.154  -1.268  0.00  0.00    +0.000 NA
ATOM      9  C   UNL     1      -0.505   0.099  -0.865  0.00  0.00    +0.000 A 
ATOM     10  C   UNL     1      -0.698  -0.625   0.305  0.00  0.00    +0.000 A 
ATOM     11  C   UNL     1      -1.747  -0.302   1.160  0.00  0.00    +0.000 A 
ATOM     12  O   UNL     1      -2.051  -1.200   2.002  0.00  0.00    +0.000 OA
ATOM     13  N   UNL     1      -2.667   0.565   0.672  0.00  0.00    +0.000 N 
ATOM     14  C   UNL     1      -3.785   0.864   1.544  0.00  0.00    +0.000 C 
ATOM     15  C   UNL     1      -2.606   0.994  -0.595  0.00  0.00    +0.000 A 
ATOM     16  O   UNL     1      -3.598   1.640  -1.031  0.00  0.00    +0.000 OA
ATOM     17  N   UNL     1      -1.528   0.802  -1.383  0.00  0.00    +0.000 N 
ATOM     18  C   UNL     1      -1.618   0.934  -2.830  0.00  0.00    +0.000 C 
ENDROOT
BRANCH   3   4
ATOM      4  C   UNL     1       2.841  -0.589   0.067  0.00  0.00    +0.000 C 
ATOM      5  C   UNL     1       3.931  -0.340   0.546  0.00  0.00    +0.000 C 
BRANCH   5   6
ATOM      6  C   UNL     1       4.927   0.340   1.393  0.00  0.00    +0.000 C 
BRANCH   6   7
ATOM      7  O   UNL     1       5.720   1.207   0.661  0.00  0.00    +0.000 OA
ATOM     19  H   UNL     1       6.206   0.708  -0.014  0.00  0.00    +0.000 HD
ENDBRANCH   6   7
ENDBRANCH   5   6
ENDBRANCH   3   4
TORSDOF 3
ENDMDL
MODEL       57
REMARK  Name = 
REMARK  4 active torsions:
REMARK  status: ('A' for Active; 'I' for Inactive)
REMARK    1  A    between atoms: C_1  and  N_2
REMARK    2  A    between atoms: C_3  and  C_4
REMARK    3  A    between atoms: N_11  and  C_12
REMARK    4  A    between atoms: N_15  and  C_16
REMARK                            x       y       z     vdW  Elec       q    Type
REMARK                         _______ _______ _______ _____ _____    ______ ____
ROOT
ATOM      1  C   UNL     1       1.947   1.664  -1.673  0.00  0.00    +0.000 C 
ATOM      2  N   UNL     1       1.456   0.506  -0.928  0.00  0.00    +0.000 N 
ATOM      3  C   UNL     1       2.232  -0.268  -0.129  0.00  0.00    +0.000 A 
ATOM      6  N   UNL     1       1.440  -1.320   0.193  0.00  0.00    +0.000 NA
ATOM      7  C   UNL     1       0.151  -0.969  -0.040  0.00  0.00    +0.000 A 
ATOM      8  C   UNL     1       0.151   0.281  -0.637  0.00  0.00    +0.000 A 
ATOM      9  C   UNL     1      -0.999   1.058  -0.671  0.00  0.00    +0.000 A 
ATOM     10  O   UNL     1      -0.842   2.314  -0.753  0.00  0.00    +0.000 OA
ATOM     11  N   UNL     1      -2.075   0.624   0.026  0.00  0.00    +0.000 N 
ATOM     12  C   UNL     1      -3.015   1.539   0.647  0.00  0.00    +0.000 C 
ATOM     13  C   UNL     1      -2.163  -0.690   0.352  0.00  0.00    +0.000 A 
ATOM     14  O   UNL     1      -3.305  -1.204   0.513  0.00  0.00    +0.000 OA
ATOM     15  N   UNL     1      -1.051  -1.459   0.324  0.00  0.00    +0.000 N 
ATOM     16  C   UNL     1      -1.130  -2.838   0.795  0.00  0.00    +0.000 C 
ENDROOT
BRANCH   3   4
ATOM      4  C   UNL     1       3.543   0.067   0.444  0.00  0.00    +0.000 C 
ATOM      5  O   UNL     1       3.659   0.694   1.537  0.00  0.00    +0.000 OA
ENDBRANCH   3   4
TORSDOF 1
ENDMDL
MODEL       58
REMARK  Name = 
REMARK  5 active torsions:
REMARK  status: ('A' for Active; 'I' for Inactive)
REMARK    1  A    between atoms: C_2  and  C_3
REMARK    2  A    between atoms: C_3  and  N_4
REMARK    3  A    between atoms: C_5  and  C_6
REMARK    4  A    between atoms: N_13  and  C_14
REMARK    5  A    between atoms: N_17  and  C_18
REMARK                            x       y       z     vdW  Elec       q    Type
REMARK                         _______ _______ _______ _____ _____    ______ ____
ROOT
ATOM      4  N   UNL     1       1.266   0.022  -0.157  0.00  0.00    +0.000 N 
ATOM      5  C   UNL     1       1.464   1.351   0.004  0.00  0.00    +0.000 A 
ATOM      8  N   UNL     1       0.431   1.737   0.793  0.00  0.00    +0.000 NA
ATOM      9  C   UNL     1      -0.548   0.808   0.762  0.00  0.00    +0.000 A 
ATOM     10  C   UNL     1      -0.005  -0.304   0.137  0.00  0.00    +0.000 A 
ATOM     11  C   UNL     1      -0.888  -1.306  -0.251  0.00  0.00    +0.000 A 
ATOM     12  O   UNL     1      -0.408  -2.171  -1.038  0.00  0.00    +0.000 OA
ATOM     13  N   UNL     1      -2.217  -1.049  -0.309  0.00  0.00    +0.000 N 
ATOM     14  C   UNL     1      -3.067  -1.580  -1.372  0.00  0.00    +0.000 C 
ATOM     15  C   UNL     1      -2.712   0.037   0.334  0.00  0.00    +0.000 A 
ATOM     16  O   UNL     1      -3.929   0.365   0.201  0.00  0.00    +0.000 OA
ATOM     17  N   UNL     1      -1.848   0.753   1.092  0.00  0.00    +0.000 N 
ATOM     18  C   UNL     1      -2.367   1.755   1.994  0.00  0.00    +0.000 C 
ENDROOT
BRANCH   5   6
ATOM      6  C   UNL     1       2.208   2.237  -0.898  0.00  0.00    +0.000 C 
ATOM      7  O   UNL     1       3.393   2.071  -1.229  0.00  0.00    +0.000 OA
ENDBRANCH   5   6
BRANCH   4   3
ATOM      3  C   UNL     1       2.237  -0.879  -0.713  0.00  0.00    +0.000 C 
BRANCH   3   2
ATOM      1  C   UNL     1       3.998  -2.342   0.248  0.00  0.00    +0.000 C 
ATOM      2  C   UNL     1       2.994  -1.504   0.401  0.00  0.00    +0.000 C 
ENDBRANCH   3   2
ENDBRANCH   4   3
TORSDOF 3
ENDMDL
MODEL       59
REMARK  Name = 
REMARK  5 active torsions:
REMARK  status: ('A' for Active; 'I' for Inactive)
REMARK    1  A    between atoms: C_1  and  N_2
REMARK    2  A    between atoms: N_9  and  C_10
REMARK    3  A    between atoms: C_10  and  C_11
REMARK    4  A    between atoms: C_11  and  O_13
REMARK    5  A    between atoms: N_16  and  C_17
REMARK                            x       y       z     vdW  Elec       q    Type
REMARK                         _______ _______ _______ _____ _____    ______ ____
ROOT
ATOM      1  C   UNL     1      -2.480  -2.615  -0.510  0.00  0.00    +0.000 C 
ATOM      2  N   UNL     1      -2.215  -1.488   0.380  0.00  0.00    +0.000 N 
ATOM      3  C   UNL     1      -3.094  -0.823   1.168  0.00  0.00    +0.000 A 
ATOM      4  N   UNL     1      -2.774   0.494   1.158  0.00  0.00    +0.000 N 
ATOM      5  C   UNL     1      -1.550   0.649   0.613  0.00  0.00    +0.000 A 
ATOM      6  C   UNL     1      -1.163  -0.640   0.278  0.00  0.00    +0.000 A 
ATOM      7  C   UNL     1       0.133  -0.837  -0.186  0.00  0.00    +0.000 A 
ATOM      8  O   UNL     1       0.340  -1.892  -0.823  0.00  0.00    +0.000 OA
ATOM      9  N   UNL     1       0.909   0.270  -0.306  0.00  0.00    +0.000 N 
ATOM     14  C   UNL     1       0.398   1.521  -0.210  0.00  0.00    +0.000 A 
ATOM     15  O   UNL     1       1.037   2.498  -0.653  0.00  0.00    +0.000 OA
ATOM     16  N   UNL     1      -0.888   1.740   0.152  0.00  0.00    +0.000 N 
ATOM     17  C   UNL     1      -1.641   2.896  -0.334  0.00  0.00    +0.000 C 
ATOM     18  H   UNL     1      -3.344   1.223   1.495  0.00  0.00    +0.000 HD
ENDROOT
BRANCH   9  10
ATOM     10  C   UNL     1       2.193   0.105  -0.978  0.00  0.00    +0.000 C 
BRANCH  10  11
ATOM     11  C   UNL     1       3.239  -0.331  -0.002  0.00  0.00    +0.000 C 
ATOM     12  O   UNL     1       4.411   0.082  -0.254  0.00  0.00    +0.000 OA
BRANCH  11  13
ATOM     13  O   UNL     1       3.143  -1.629   0.506  0.00  0.00    +0.000 OA
ATOM     19  H   UNL     1       2.303  -1.991   0.712  0.00  0.00    +0.000 HD
ENDBRANCH  11  13
ENDBRANCH  10  11
ENDBRANCH   9  10
TORSDOF 3
ENDMDL
MODEL       60
REMARK  Name = 
REMARK  2 active torsions:
REMARK  status: ('A' for Active; 'I' for Inactive)
REMARK    1  A    between atoms: C_1  and  N_2
REMARK    2  A    between atoms: N_10  and  C_11
REMARK                            x       y       z     vdW  Elec       q    Type
REMARK                         _______ _______ _______ _____ _____    ______ ____
ROOT
ATOM      1  C   UNL     1      -1.353  -2.822  -0.436  0.00  0.00    +0.000 C 
ATOM      2  N   UNL     1      -1.265  -1.374  -0.456  0.00  0.00    +0.000 N 
ATOM      3  C   UNL     1      -0.059  -0.805  -0.704  0.00  0.00    +0.000 A 
ATOM      4  N   UNL     1       1.153  -1.278  -1.081  0.00  0.00    +0.000 NA
ATOM      5  C   UNL     1       2.127  -0.434  -0.660  0.00  0.00    +0.000 A 
ATOM      6  N   UNL     1       1.540   0.673  -0.168  0.00  0.00    +0.000 N 
ATOM      7  C   UNL     1       0.211   0.520  -0.384  0.00  0.00    +0.000 A 
ATOM      8  C   UNL     1      -0.892   1.303  -0.090  0.00  0.00    +0.000 A 
ATOM      9  O   UNL     1      -0.683   2.504   0.213  0.00  0.00    +0.000 OA
ATOM     10  N   UNL     1      -2.083   0.689   0.109  0.00  0.00    +0.000 N 
ATOM     11  C   UNL     1      -3.091   1.487   0.801  0.00  0.00    +0.000 C 
ATOM     12  C   UNL     1      -2.162  -0.655   0.258  0.00  0.00    +0.000 A 
ATOM     13  O   UNL     1      -2.946  -1.194   1.095  0.00  0.00    +0.000 OA
ATOM     14  C   UNL     1       2.497   1.448   0.616  0.00  0.00    +0.000 C 
ATOM     15  C   UNL     1       3.552   0.422   1.012  0.00  0.00    +0.000 C 
ATOM     16  N   UNL     1       3.456  -0.487  -0.126  0.00  0.00    +0.000 N 
ATOM     17  H   UNL     1       4.187  -1.048  -0.471  0.00  0.00    +0.000 HD
ENDROOT
TORSDOF 0
ENDMDL
MODEL       61
REMARK  Name = 
REMARK  2 active torsions:
REMARK  status: ('A' for Active; 'I' for Inactive)
REMARK    1  A    between atoms: C_1  and  N_2
REMARK    2  A    between atoms: N_10  and  C_11
REMARK                            x       y       z     vdW  Elec       q    Type
REMARK                         _______ _______ _______ _____ _____    ______ ____
ROOT
ATOM      1  C   UNL     1      -2.144   2.670   0.380  0.00  0.00    +0.000 C 
ATOM      2  N   UNL     1      -1.665   1.317   0.136  0.00  0.00    +0.000 N 
ATOM      3  C   UNL     1      -0.343   1.189  -0.112  0.00  0.00    +0.000 A 
ATOM      4  N   UNL     1       0.768   1.785   0.384  0.00  0.00    +0.000 NA
ATOM      5  C   UNL     1       1.834   0.964   0.235  0.00  0.00    +0.000 A 
ATOM      6  N   UNL     1       1.401   0.036  -0.656  0.00  0.00    +0.000 N 
ATOM      7  C   UNL     1       0.054  -0.054  -0.594  0.00  0.00    +0.000 A 
ATOM      8  C   UNL     1      -0.880  -1.059  -0.813  0.00  0.00    +0.000 A 
ATOM      9  O   UNL     1      -0.430  -2.235  -0.964  0.00  0.00    +0.000 OA
ATOM     10  N   UNL     1      -2.056  -0.983  -0.141  0.00  0.00    +0.000 N 
ATOM     11  C   UNL     1      -2.730  -2.118   0.425  0.00  0.00    +0.000 C 
ATOM     12  C   UNL     1      -2.463   0.241   0.271  0.00  0.00    +0.000 A 
ATOM     13  O   UNL     1      -3.622   0.372   0.752  0.00  0.00    +0.000 OA
ATOM     14  C   UNL     1       2.397  -0.871  -1.165  0.00  0.00    +0.000 C 
ATOM     15  C   UNL     1       3.155  -1.497  -0.042  0.00  0.00    +0.000 C 
ATOM     16  C   UNL     1       3.643  -0.542   1.004  0.00  0.00    +0.000 C 
ATOM     17  N   UNL     1       3.081   0.783   0.899  0.00  0.00    +0.000 N 
ATOM     18  H   UNL     1       3.556   1.556   1.282  0.00  0.00    +0.000 HD
ENDROOT
TORSDOF 0
ENDMDL
MODEL       62
REMARK  Name = 
REMARK  5 active torsions:
REMARK  status: ('A' for Active; 'I' for Inactive)
REMARK    1  A    between atoms: C_1  and  C_2
REMARK    2  A    between atoms: C_3  and  C_4
REMARK    3  A    between atoms: C_4  and  N_5
REMARK    4  A    between atoms: N_12  and  C_13
REMARK    5  A    between atoms: N_16  and  C_17
REMARK                            x       y       z     vdW  Elec       q    Type
REMARK                         _______ _______ _______ _____ _____    ______ ____
ROOT
ATOM      5  N   UNL     1       1.139   0.793  -0.958  0.00  0.00    +0.000 N 
ATOM      6  C   UNL     1       0.903   2.120  -1.108  0.00  0.00    +0.000 A 
ATOM      7  N   UNL     1      -0.221   2.412  -0.406  0.00  0.00    +0.000 NA
ATOM      8  C   UNL     1      -0.915   1.269  -0.190  0.00  0.00    +0.000 A 
ATOM      9  C   UNL     1      -0.087   0.276  -0.704  0.00  0.00    +0.000 A 
ATOM     10  C   UNL     1      -0.527  -1.039  -0.595  0.00  0.00    +0.000 A 
ATOM     11  O   UNL     1       0.078  -1.955  -1.194  0.00  0.00    +0.000 OA
ATOM     12  N   UNL     1      -1.756  -1.241  -0.115  0.00  0.00    +0.000 N 
ATOM     13  C   UNL     1      -2.364  -2.550  -0.303  0.00  0.00    +0.000 C 
ATOM     14  C   UNL     1      -2.349  -0.320   0.683  0.00  0.00    +0.000 A 
ATOM     15  O   UNL     1      -3.193  -0.699   1.545  0.00  0.00    +0.000 OA
ATOM     16  N   UNL     1      -1.912   0.964   0.674  0.00  0.00    +0.000 N 
ATOM     17  C   UNL     1      -2.307   1.875   1.745  0.00  0.00    +0.000 C 
ENDROOT
BRANCH   5   4
ATOM      4  C   UNL     1       2.324   0.028  -1.233  0.00  0.00    +0.000 C 
BRANCH   4   3
ATOM      1  C   UNL     1       4.854  -0.854   1.325  0.00  0.00    +0.000 C 
ATOM      2  C   UNL     1       3.508  -0.317   0.934  0.00  0.00    +0.000 C 
ATOM      3  C   UNL     1       2.823  -0.760  -0.100  0.00  0.00    +0.000 C 
ENDBRANCH   4   3
ENDBRANCH   5   4
TORSDOF 2
ENDMDL
MODEL       63
REMARK  Name = 
REMARK  5 active torsions:
REMARK  status: ('A' for Active; 'I' for Inactive)
REMARK    1  A    between atoms: C_1  and  C_2
REMARK    2  A    between atoms: C_2  and  C_3
REMARK    3  A    between atoms: C_3  and  N_4
REMARK    4  A    between atoms: N_8  and  C_9
REMARK    5  A    between atoms: N_13  and  C_14
REMARK                            x       y       z     vdW  Elec       q    Type
REMARK                         _______ _______ _______ _____ _____    ______ ____
ROOT
ATOM      4  N   UNL     1       0.890  -0.059  -0.857  0.00  0.00    +0.000 N 
ATOM      5  C   UNL     1      -0.078   0.851  -0.601  0.00  0.00    +0.000 A 
ATOM      6  N   UNL     1      -0.132   2.201  -0.627  0.00  0.00    +0.000 NA
ATOM      7  C   UNL     1      -1.246   2.629   0.011  0.00  0.00    +0.000 A 
ATOM      8  N   UNL     1      -1.948   1.565   0.417  0.00  0.00    +0.000 N 
ATOM      9  C   UNL     1      -2.832   1.565   1.571  0.00  0.00    +0.000 C 
ATOM     10  C   UNL     1      -1.228   0.476   0.056  0.00  0.00    +0.000 A 
ATOM     11  C   UNL     1      -1.452  -0.888   0.165  0.00  0.00    +0.000 A 
ATOM     12  O   UNL     1      -2.542  -1.272   0.633  0.00  0.00    +0.000 OA
ATOM     13  N   UNL     1      -0.441  -1.789   0.065  0.00  0.00    +0.000 N 
ATOM     14  C   UNL     1      -0.344  -2.916   0.990  0.00  0.00    +0.000 C 
ATOM     15  C   UNL     1       0.636  -1.376  -0.647  0.00  0.00    +0.000 A 
ATOM     16  O   UNL     1       1.669  -2.111  -0.608  0.00  0.00    +0.000 OA
ENDROOT
BRANCH   4   3
ATOM      3  C   UNL     1       2.221   0.421  -1.203  0.00  0.00    +0.000 C 
BRANCH   3   2
ATOM      1  C   UNL     1       3.610   0.858   0.840  0.00  0.00    +0.000 C 
ATOM      2  C   UNL     1       3.219  -0.155  -0.205  0.00  0.00    +0.000 C 
ENDBRANCH   3   2
ENDBRANCH   4   3
TORSDOF 2
ENDMDL
MODEL       64
REMARK  Name = 
REMARK  5 active torsions:
REMARK  status: ('A' for Active; 'I' for Inactive)
REMARK    1  A    between atoms: C_1  and  N_2
REMARK    2  A    between atoms: N_6  and  C_7
REMARK    3  A    between atoms: C_7  and  C_8
REMARK    4  A    between atoms: C_8  and  C_9
REMARK    5  A    between atoms: N_14  and  C_15
REMARK                            x       y       z     vdW  Elec       q    Type
REMARK                         _______ _______ _______ _____ _____    ______ ____
ROOT
ATOM      1  C   UNL     1      -3.383  -1.550   0.962  0.00  0.00    +0.000 C 
ATOM      2  N   UNL     1      -2.297  -0.635   0.643  0.00  0.00    +0.000 N 
ATOM      3  C   UNL     1      -1.097  -1.168   0.375  0.00  0.00    +0.000 A 
ATOM      4  N   UNL     1      -0.564  -2.386   0.594  0.00  0.00    +0.000 NA
ATOM      5  C   UNL     1       0.649  -2.393   0.009  0.00  0.00    +0.000 A 
ATOM      6  N   UNL     1       0.998  -1.096  -0.166  0.00  0.00    +0.000 N 
ATOM     11  C   UNL     1      -0.026  -0.315   0.257  0.00  0.00    +0.000 A 
ATOM     12  C   UNL     1      -0.257   1.044   0.335  0.00  0.00    +0.000 A 
ATOM     13  O   UNL     1       0.733   1.791   0.066  0.00  0.00    +0.000 OA
ATOM     14  N   UNL     1      -1.507   1.558   0.227  0.00  0.00    +0.000 N 
ATOM     15  C   UNL     1      -1.784   2.776  -0.524  0.00  0.00    +0.000 C 
ATOM     16  C   UNL     1      -2.520   0.680   0.410  0.00  0.00    +0.000 A 
ATOM     17  O   UNL     1      -3.736   1.016   0.293  0.00  0.00    +0.000 OA
ENDROOT
BRANCH   6   7
ATOM      7  C   UNL     1       2.326  -0.612  -0.433  0.00  0.00    +0.000 C 
BRANCH   7   8
ATOM      8  C   UNL     1       3.007  -0.212   0.843  0.00  0.00    +0.000 C 
BRANCH   8   9
ATOM      9  C   UNL     1       4.235   0.536   0.628  0.00  0.00    +0.000 C 
ATOM     10  N   UNL     1       5.224   0.966   0.180  0.00  0.00    +0.000 NA
ENDBRANCH   8   9
ENDBRANCH   7   8
ENDBRANCH   6   7
TORSDOF 3
ENDMDL
MODEL       65
REMARK  Name = 
REMARK  6 active torsions:
REMARK  status: ('A' for Active; 'I' for Inactive)
REMARK    1  A    between atoms: C_1  and  N_2
REMARK    2  A    between atoms: N_6  and  C_7
REMARK    3  A    between atoms: C_7  and  C_8
REMARK    4  A    between atoms: C_8  and  C_9
REMARK    5  A    between atoms: C_9  and  C_10
REMARK    6  A    between atoms: N_15  and  C_16
REMARK                            x       y       z     vdW  Elec       q    Type
REMARK                         _______ _______ _______ _____ _____    ______ ____
ROOT
ATOM      1  C   UNL     1      -3.294  -1.710   1.190  0.00  0.00    +0.000 C 
ATOM      2  N   UNL     1      -2.492  -0.737   0.493  0.00  0.00    +0.000 N 
ATOM      3  C   UNL     1      -1.184  -0.990   0.286  0.00  0.00    +0.000 A 
ATOM      4  N   UNL     1      -0.424  -2.103   0.289  0.00  0.00    +0.000 NA
ATOM      5  C   UNL     1       0.809  -1.736  -0.111  0.00  0.00    +0.000 A 
ATOM      6  N   UNL     1       0.802  -0.445  -0.505  0.00  0.00    +0.000 N 
ATOM     12  C   UNL     1      -0.345   0.078  -0.009  0.00  0.00    +0.000 A 
ATOM     13  C   UNL     1      -0.969   1.277  -0.330  0.00  0.00    +0.000 A 
ATOM     14  O   UNL     1      -0.251   2.313  -0.192  0.00  0.00    +0.000 OA
ATOM     15  N   UNL     1      -2.314   1.355  -0.481  0.00  0.00    +0.000 N 
ATOM     16  C   UNL     1      -2.862   2.702  -0.571  0.00  0.00    +0.000 C 
ATOM     17  C   UNL     1      -3.088   0.293  -0.156  0.00  0.00    +0.000 A 
ATOM     18  O   UNL     1      -4.328   0.382  -0.290  0.00  0.00    +0.000 OA
ENDROOT
BRANCH   6   7
ATOM      7  C   UNL     1       1.982   0.371  -0.744  0.00  0.00    +0.000 C 
BRANCH   7   8
ATOM      8  C   UNL     1       2.843   0.292   0.497  0.00  0.00    +0.000 C 
BRANCH   8   9
ATOM      9  C   UNL     1       3.769  -0.891   0.473  0.00  0.00    +0.000 C 
BRANCH   9  10
ATOM     10  C   UNL     1       5.164  -0.505   0.219  0.00  0.00    +0.000 C 
ATOM     11  N   UNL     1       6.182   0.055   0.108  0.00  0.00    +0.000 NA
ENDBRANCH   9  10
ENDBRANCH   8   9
ENDBRANCH   7   8
ENDBRANCH   6   7
TORSDOF 4
ENDMDL
MODEL       66
REMARK  Name = 
REMARK  6 active torsions:
REMARK  status: ('A' for Active; 'I' for Inactive)
REMARK    1  A    between atoms: C_1  and  C_2
REMARK    2  A    between atoms: C_2  and  C_3
REMARK    3  A    between atoms: C_3  and  C_4
REMARK    4  A    between atoms: C_4  and  N_5
REMARK    5  A    between atoms: N_12  and  C_13
REMARK    6  A    between atoms: N_16  and  C_17
REMARK                            x       y       z     vdW  Elec       q    Type
REMARK                         _______ _______ _______ _____ _____    ______ ____
ROOT
ATOM      5  N   UNL     1       1.091  -0.975   0.064  0.00  0.00    +0.000 N 
ATOM      6  C   UNL     1       0.742  -2.281  -0.031  0.00  0.00    +0.000 A 
ATOM      7  N   UNL     1      -0.594  -2.382  -0.238  0.00  0.00    +0.000 NA
ATOM      8  C   UNL     1      -1.103  -1.170   0.040  0.00  0.00    +0.000 A 
ATOM      9  C   UNL     1      -0.065  -0.352   0.394  0.00  0.00    +0.000 A 
ATOM     10  C   UNL     1      -0.347   0.990   0.596  0.00  0.00    +0.000 A 
ATOM     11  O   UNL     1       0.605   1.790   0.831  0.00  0.00    +0.000 OA
ATOM     12  N   UNL     1      -1.532   1.523   0.259  0.00  0.00    +0.000 N 
ATOM     13  C   UNL     1      -1.845   2.906   0.578  0.00  0.00    +0.000 C 
ATOM     14  C   UNL     1      -2.540   0.706  -0.116  0.00  0.00    +0.000 A 
ATOM     15  O   UNL     1      -3.422   1.198  -0.883  0.00  0.00    +0.000 OA
ATOM     16  N   UNL     1      -2.341  -0.625   0.002  0.00  0.00    +0.000 N 
ATOM     17  C   UNL     1      -3.495  -1.480  -0.222  0.00  0.00    +0.000 C 
ENDROOT
BRANCH   5   4
ATOM      4  C   UNL     1       2.353  -0.480   0.608  0.00  0.00    +0.000 C 
BRANCH   4   3
ATOM      3  C   UNL     1       3.510  -0.764  -0.304  0.00  0.00    +0.000 C 
BRANCH   3   2
ATOM      1  C   UNL     1       4.268   1.407   0.570  0.00  0.00    +0.000 C 
ATOM      2  C   UNL     1       4.715  -0.012   0.243  0.00  0.00    +0.000 C 
ENDBRANCH   3   2
ENDBRANCH   4   3
ENDBRANCH   5   4
TORSDOF 3
ENDMDL
MODEL       67
REMARK  Name = 
REMARK  6 active torsions:
REMARK  status: ('A' for Active; 'I' for Inactive)
REMARK    1  A    between atoms: C_1  and  C_2
REMARK    2  A    between atoms: C_2  and  O_3
REMARK    3  A    between atoms: C_2  and  C_4
REMARK    4  A    between atoms: N_10  and  C_11
REMARK    5  A    between atoms: N_14  and  C_15
REMARK    6  A    between atoms: N_16  and  C_17
REMARK                            x       y       z     vdW  Elec       q    Type
REMARK                         _______ _______ _______ _____ _____    ______ ____
ROOT
ATOM      4  C   UNL     1       1.876   0.372   0.358  0.00  0.00    +0.000 A 
ATOM      5  N   UNL     1       0.998   1.385   0.120  0.00  0.00    +0.000 NA
ATOM      6  C   UNL     1      -0.146   0.891  -0.374  0.00  0.00    +0.000 A 
ATOM      7  C   UNL     1      -0.048  -0.484  -0.192  0.00  0.00    +0.000 A 
ATOM      8  C   UNL     1      -1.162  -1.274  -0.170  0.00  0.00    +0.000 A 
ATOM      9  O   UNL     1      -1.012  -2.524  -0.119  0.00  0.00    +0.000 OA
ATOM     10  N   UNL     1      -2.369  -0.704  -0.166  0.00  0.00    +0.000 N 
ATOM     11  C   UNL     1      -3.447  -1.442   0.488  0.00  0.00    +0.000 C 
ATOM     12  C   UNL     1      -2.450   0.646  -0.075  0.00  0.00    +0.000 A 
ATOM     13  O   UNL     1      -3.535   1.194   0.223  0.00  0.00    +0.000 OA
ATOM     14  N   UNL     1      -1.403   1.325  -0.607  0.00  0.00    +0.000 N 
ATOM     15  C   UNL     1      -1.542   2.701  -0.978  0.00  0.00    +0.000 C 
ATOM     16  N   UNL     1       1.262  -0.712  -0.096  0.00  0.00    +0.000 N 
ATOM     17  C   UNL     1       1.826  -2.013   0.243  0.00  0.00    +0.000 C 
ENDROOT
BRANCH   4   2
ATOM      1  C   UNL     1       3.876   0.645   1.580  0.00  0.00    +0.000 C 
ATOM      2  C   UNL     1       3.418   0.718  -0.008  0.00  0.00    +0.000 C 
BRANCH   2   3
ATOM      3  O   UNL     1       3.858  -0.725  -0.229  0.00  0.00    +0.000 OA
ATOM     18  H   UNL     1       3.529  -1.277   0.498  0.00  0.00    +0.000 HD
ENDBRANCH   2   3
ENDBRANCH   4   2
TORSDOF 2
ENDMDL
MODEL       68
REMARK  Name = 
REMARK  6 active torsions:
REMARK  status: ('A' for Active; 'I' for Inactive)
REMARK    1  A    between atoms: C_1  and  C_2
REMARK    2  A    between atoms: C_2  and  N_3
REMARK    3  A    between atoms: C_4  and  C_5
REMARK    4  A    between atoms: C_5  and  O_6
REMARK    5  A    between atoms: N_12  and  C_13
REMARK    6  A    between atoms: N_16  and  C_17
REMARK                            x       y       z     vdW  Elec       q    Type
REMARK                         _______ _______ _______ _____ _____    ______ ____
ROOT
ATOM      3  N   UNL     1      -1.489   0.522   0.213  0.00  0.00    +0.000 N 
ATOM      4  C   UNL     1      -1.984  -0.281  -0.761  0.00  0.00    +0.000 A 
ATOM      7  N   UNL     1      -1.019  -0.325  -1.690  0.00  0.00    +0.000 NA
ATOM      8  C   UNL     1       0.141  -0.223  -0.994  0.00  0.00    +0.000 A 
ATOM      9  C   UNL     1      -0.146   0.388   0.222  0.00  0.00    +0.000 A 
ATOM     10  C   UNL     1       0.847   0.511   1.185  0.00  0.00    +0.000 A 
ATOM     11  O   UNL     1       0.459   0.664   2.383  0.00  0.00    +0.000 OA
ATOM     12  N   UNL     1       2.078  -0.014   0.969  0.00  0.00    +0.000 N 
ATOM     13  C   UNL     1       2.800  -0.755   2.000  0.00  0.00    +0.000 C 
ATOM     14  C   UNL     1       2.352  -0.371  -0.300  0.00  0.00    +0.000 A 
ATOM     15  O   UNL     1       3.573  -0.453  -0.613  0.00  0.00    +0.000 OA
ATOM     16  N   UNL     1       1.443  -0.388  -1.289  0.00  0.00    +0.000 N 
ATOM     17  C   UNL     1       1.846  -0.301  -2.691  0.00  0.00    +0.000 C 
ENDROOT
BRANCH   3   2
ATOM      1  C   UNL     1      -2.107   2.768   0.830  0.00  0.00    +0.000 C 
ATOM      2  C   UNL     1      -2.221   1.292   1.190  0.00  0.00    +0.000 C 
ENDBRANCH   3   2
BRANCH   4   5
ATOM      5  C   UNL     1      -3.314  -0.945  -0.728  0.00  0.00    +0.000 C 
BRANCH   5   6
ATOM      6  O   UNL     1      -3.259  -2.089   0.073  0.00  0.00    +0.000 OA
ATOM     18  H   UNL     1      -2.607  -2.708  -0.292  0.00  0.00    +0.000 HD
ENDBRANCH   5   6
ENDBRANCH   4   5
TORSDOF 3
ENDMDL
MODEL       69
REMARK  Name = 
REMARK  5 active torsions:
REMARK  status: ('A' for Active; 'I' for Inactive)
REMARK    1  A    between atoms: C_2  and  C_3
REMARK    2  A    between atoms: C_3  and  N_4
REMARK    3  A    between atoms: C_5  and  C_6
REMARK    4  A    between atoms: N_13  and  C_14
REMARK    5  A    between atoms: N_17  and  C_18
REMARK                            x       y       z     vdW  Elec       q    Type
REMARK                         _______ _______ _______ _____ _____    ______ ____
ROOT
ATOM      4  N   UNL     1       1.316   0.291  -0.212  0.00  0.00    +0.000 N 
ATOM      5  C   UNL     1       1.528   0.990   0.902  0.00  0.00    +0.000 A 
ATOM      8  N   UNL     1       0.512   0.657   1.735  0.00  0.00    +0.000 NA
ATOM      9  C   UNL     1      -0.470   0.095   1.012  0.00  0.00    +0.000 A 
ATOM     10  C   UNL     1       0.083  -0.260  -0.213  0.00  0.00    +0.000 A 
ATOM     11  C   UNL     1      -0.828  -0.642  -1.184  0.00  0.00    +0.000 A 
ATOM     12  O   UNL     1      -0.427  -0.555  -2.384  0.00  0.00    +0.000 OA
ATOM     13  N   UNL     1      -2.163  -0.530  -1.015  0.00  0.00    +0.000 N 
ATOM     14  C   UNL     1      -3.054  -0.111  -2.095  0.00  0.00    +0.000 C 
ATOM     15  C   UNL     1      -2.586  -0.419   0.268  0.00  0.00    +0.000 A 
ATOM     16  O   UNL     1      -3.795  -0.710   0.499  0.00  0.00    +0.000 OA
ATOM     17  N   UNL     1      -1.718  -0.354   1.286  0.00  0.00    +0.000 N 
ATOM     18  C   UNL     1      -2.088  -0.625   2.668  0.00  0.00    +0.000 C 
ENDROOT
BRANCH   5   6
ATOM      6  C   UNL     1       2.439   2.137   1.010  0.00  0.00    +0.000 C 
ATOM      7  O   UNL     1       2.174   3.222   0.409  0.00  0.00    +0.000 OA
ENDBRANCH   5   6
BRANCH   4   3
ATOM      3  C   UNL     1       2.279   0.026  -1.258  0.00  0.00    +0.000 C 
BRANCH   3   2
ATOM      1  C   UNL     1       3.666  -2.109  -0.528  0.00  0.00    +0.000 C 
ATOM      2  C   UNL     1       3.132  -1.103  -0.899  0.00  0.00    +0.000 C 
ENDBRANCH   3   2
ENDBRANCH   4   3
TORSDOF 3
ENDMDL
MODEL       70
REMARK  Name = 
REMARK  4 active torsions:
REMARK  status: ('A' for Active; 'I' for Inactive)
REMARK    1  A    between atoms: C_1  and  C_2
REMARK    2  A    between atoms: N_8  and  C_9
REMARK    3  A    between atoms: N_12  and  C_13
REMARK    4  A    between atoms: N_14  and  C_15
REMARK                            x       y       z     vdW  Elec       q    Type
REMARK                         _______ _______ _______ _____ _____    ______ ____
ROOT
ATOM      1  C   UNL     1       3.634   0.735   0.950  0.00  0.00    +0.000 C 
ATOM      2  C   UNL     1       2.441   0.531   0.069  0.00  0.00    +0.000 A 
ATOM      3  N   UNL     1       1.540   1.456  -0.344  0.00  0.00    +0.000 NA
ATOM      4  C   UNL     1       0.311   0.894  -0.363  0.00  0.00    +0.000 A 
ATOM      5  C   UNL     1       0.515  -0.470  -0.386  0.00  0.00    +0.000 A 
ATOM      6  C   UNL     1      -0.611  -1.284  -0.359  0.00  0.00    +0.000 A 
ATOM      7  O   UNL     1      -0.465  -2.506  -0.555  0.00  0.00    +0.000 OA
ATOM      8  N   UNL     1      -1.809  -0.776   0.021  0.00  0.00    +0.000 N 
ATOM      9  C   UNL     1      -2.877  -1.652   0.493  0.00  0.00    +0.000 C 
ATOM     10  C   UNL     1      -1.913   0.552   0.225  0.00  0.00    +0.000 A 
ATOM     11  O   UNL     1      -2.894   0.959   0.899  0.00  0.00    +0.000 OA
ATOM     12  N   UNL     1      -0.956   1.362  -0.263  0.00  0.00    +0.000 N 
ATOM     13  C   UNL     1      -1.174   2.791  -0.203  0.00  0.00    +0.000 C 
ATOM     14  N   UNL     1       1.826  -0.644  -0.211  0.00  0.00    +0.000 N 
ATOM     15  C   UNL     1       2.432  -1.949   0.027  0.00  0.00    +0.000 C 
ENDROOT
TORSDOF 0
ENDMDL
MODEL       71
REMARK  Name = 
REMARK  4 active torsions:
REMARK  status: ('A' for Active; 'I' for Inactive)
REMARK    1  A    between atoms: C_1  and  C_2
REMARK    2  A    between atoms: C_2  and  N_3
REMARK    3  A    between atoms: N_7  and  C_8
REMARK    4  A    between atoms: N_12  and  C_13
REMARK                            x       y       z     vdW  Elec       q    Type
REMARK                         _______ _______ _______ _____ _____    ______ ____
ROOT
ATOM      3  N   UNL     1      -0.905  -1.054  -0.320  0.00  0.00    +0.000 N 
ATOM      4  C   UNL     1       0.429  -0.936  -0.172  0.00  0.00    +0.000 A 
ATOM      5  N   UNL     1       1.415  -1.844  -0.074  0.00  0.00    +0.000 NA
ATOM      6  C   UNL     1       2.552  -1.130   0.017  0.00  0.00    +0.000 A 
ATOM      7  N   UNL     1       2.307   0.182  -0.001  0.00  0.00    +0.000 N 
ATOM      8  C   UNL     1       3.226   1.308   0.059  0.00  0.00    +0.000 C 
ATOM      9  C   UNL     1       0.979   0.324  -0.082  0.00  0.00    +0.000 A 
ATOM     10  C   UNL     1       0.171   1.420   0.086  0.00  0.00    +0.000 A 
ATOM     11  O   UNL     1       0.525   2.393   0.813  0.00  0.00    +0.000 OA
ATOM     12  N   UNL     1      -1.118   1.310  -0.319  0.00  0.00    +0.000 N 
ATOM     13  C   UNL     1      -2.043   2.436  -0.215  0.00  0.00    +0.000 C 
ATOM     14  C   UNL     1      -1.626   0.073  -0.521  0.00  0.00    +0.000 A 
ATOM     15  O   UNL     1      -2.740  -0.080  -1.107  0.00  0.00    +0.000 OA
ENDROOT
BRANCH   3   2
ATOM      1  C   UNL     1      -1.582  -2.151   1.675  0.00  0.00    +0.000 C 
ATOM      2  C   UNL     1      -1.589  -2.252   0.159  0.00  0.00    +0.000 C 
ENDBRANCH   3   2
TORSDOF 1
ENDMDL
MODEL       72
REMARK  Name = 
REMARK  5 active torsions:
REMARK  status: ('A' for Active; 'I' for Inactive)
REMARK    1  A    between atoms: C_1  and  N_2
REMARK    2  A    between atoms: N_9  and  C_10
REMARK    3  A    between atoms: N_13  and  C_14
REMARK    4  A    between atoms: C_14  and  C_15
REMARK    5  A    between atoms: C_15  and  O_16
REMARK                            x       y       z     vdW  Elec       q    Type
REMARK                         _______ _______ _______ _____ _____    ______ ____
ROOT
ATOM      1  C   UNL     1      -3.762  -0.692   0.209  0.00  0.00    +0.000 C 
ATOM      2  N   UNL     1      -2.392  -1.115  -0.010  0.00  0.00    +0.000 N 
ATOM      3  C   UNL     1      -1.883  -2.329  -0.230  0.00  0.00    +0.000 A 
ATOM      4  N   UNL     1      -0.589  -2.283   0.174  0.00  0.00    +0.000 NA
ATOM      5  C   UNL     1      -0.180  -1.004   0.226  0.00  0.00    +0.000 A 
ATOM      6  C   UNL     1      -1.353  -0.266   0.183  0.00  0.00    +0.000 A 
ATOM      7  C   UNL     1      -1.270   1.100  -0.054  0.00  0.00    +0.000 A 
ATOM      8  O   UNL     1      -2.208   1.745  -0.608  0.00  0.00    +0.000 OA
ATOM      9  N   UNL     1      -0.103   1.700   0.284  0.00  0.00    +0.000 N 
ATOM     10  C   UNL     1      -0.185   3.094   0.704  0.00  0.00    +0.000 C 
ATOM     11  C   UNL     1       0.998   0.947   0.442  0.00  0.00    +0.000 A 
ATOM     12  O   UNL     1       2.042   1.480   0.928  0.00  0.00    +0.000 OA
ATOM     13  N   UNL     1       1.002  -0.358   0.076  0.00  0.00    +0.000 N 
ENDROOT
BRANCH  13  14
ATOM     14  C   UNL     1       2.196  -1.167   0.124  0.00  0.00    +0.000 C 
BRANCH  14  15
ATOM     15  C   UNL     1       3.454  -0.373   0.329  0.00  0.00    +0.000 C 
BRANCH  15  16
ATOM     16  O   UNL     1       4.234  -0.478  -0.829  0.00  0.00    +0.000 OA
ATOM     17  H   UNL     1       4.445  -1.411  -0.993  0.00  0.00    +0.000 HD
ENDBRANCH  15  16
ENDBRANCH  14  15
ENDBRANCH  13  14
TORSDOF 3
ENDMDL
MODEL       73
REMARK  Name = 
REMARK  5 active torsions:
REMARK  status: ('A' for Active; 'I' for Inactive)
REMARK    1  A    between atoms: C_1  and  C_2
REMARK    2  A    between atoms: C_2  and  C_3
REMARK    3  A    between atoms: C_3  and  N_4
REMARK    4  A    between atoms: N_11  and  C_12
REMARK    5  A    between atoms: N_13  and  C_14
REMARK                            x       y       z     vdW  Elec       q    Type
REMARK                         _______ _______ _______ _____ _____    ______ ____
ROOT
ATOM      4  N   UNL     1       1.122  -0.143  -0.214  0.00  0.00    +0.000 N 
ATOM      5  C   UNL     1       0.231   0.876  -0.292  0.00  0.00    +0.000 A 
ATOM      6  O   UNL     1       0.613   2.073  -0.434  0.00  0.00    +0.000 OA
ATOM      7  C   UNL     1      -1.001   0.649   0.309  0.00  0.00    +0.000 A 
ATOM      8  C   UNL     1      -1.540  -0.632   0.277  0.00  0.00    +0.000 A 
ATOM      9  N   UNL     1      -2.873  -0.555   0.041  0.00  0.00    +0.000 NA
ATOM     10  C   UNL     1      -3.194   0.725   0.349  0.00  0.00    +0.000 A 
ATOM     11  N   UNL     1      -2.069   1.433   0.589  0.00  0.00    +0.000 N 
ATOM     12  C   UNL     1      -1.960   2.865   0.828  0.00  0.00    +0.000 C 
ATOM     13  N   UNL     1      -0.646  -1.633   0.103  0.00  0.00    +0.000 N 
ATOM     14  C   UNL     1      -1.104  -3.009   0.188  0.00  0.00    +0.000 C 
ATOM     15  C   UNL     1       0.593  -1.380  -0.386  0.00  0.00    +0.000 A 
ATOM     16  O   UNL     1       1.365  -2.339  -0.588  0.00  0.00    +0.000 OA
ENDROOT
BRANCH   4   3
ATOM      3  C   UNL     1       2.427   0.144  -0.802  0.00  0.00    +0.000 C 
BRANCH   3   2
ATOM      1  C   UNL     1       4.477   1.067   0.269  0.00  0.00    +0.000 C 
ATOM      2  C   UNL     1       3.559  -0.139   0.146  0.00  0.00    +0.000 C 
ENDBRANCH   3   2
ENDBRANCH   4   3
TORSDOF 2
ENDMDL
MODEL       74
REMARK  Name = 
REMARK  6 active torsions:
REMARK  status: ('A' for Active; 'I' for Inactive)
REMARK    1  A    between atoms: C_1  and  C_2
REMARK    2  A    between atoms: C_2  and  C_3
REMARK    3  A    between atoms: C_3  and  C_4
REMARK    4  A    between atoms: N_10  and  C_11
REMARK    5  A    between atoms: N_14  and  C_15
REMARK    6  A    between atoms: N_16  and  C_17
REMARK                            x       y       z     vdW  Elec       q    Type
REMARK                         _______ _______ _______ _____ _____    ______ ____
ROOT
ATOM      4  C   UNL     1       1.812   0.583   0.052  0.00  0.00    +0.000 A 
ATOM      5  N   UNL     1       0.866   1.449   0.494  0.00  0.00    +0.000 NA
ATOM      6  C   UNL     1      -0.346   0.902   0.259  0.00  0.00    +0.000 A 
ATOM      7  C   UNL     1      -0.076  -0.437   0.030  0.00  0.00    +0.000 A 
ATOM      8  C   UNL     1      -1.115  -1.330   0.028  0.00  0.00    +0.000 A 
ATOM      9  O   UNL     1      -0.889  -2.477  -0.463  0.00  0.00    +0.000 OA
ATOM     10  N   UNL     1      -2.357  -0.855   0.123  0.00  0.00    +0.000 N 
ATOM     11  C   UNL     1      -3.486  -1.760   0.160  0.00  0.00    +0.000 C 
ATOM     12  C   UNL     1      -2.589   0.479   0.079  0.00  0.00    +0.000 A 
ATOM     13  O   UNL     1      -3.740   0.889  -0.256  0.00  0.00    +0.000 OA
ATOM     14  N   UNL     1      -1.612   1.377   0.359  0.00  0.00    +0.000 N 
ATOM     15  C   UNL     1      -1.818   2.743  -0.114  0.00  0.00    +0.000 C 
ATOM     16  N   UNL     1       1.239  -0.603  -0.250  0.00  0.00    +0.000 N 
ATOM     17  C   UNL     1       1.777  -1.486  -1.283  0.00  0.00    +0.000 C 
ENDROOT
BRANCH   4   3
ATOM      3  C   UNL     1       3.290   0.693   0.251  0.00  0.00    +0.000 C 
BRANCH   3   2
ATOM      1  C   UNL     1       5.070  -0.598  -0.947  0.00  0.00    +0.000 C 
ATOM      2  C   UNL     1       3.974   0.431  -1.067  0.00  0.00    +0.000 C 
ENDBRANCH   3   2
ENDBRANCH   4   3
TORSDOF 2
ENDMDL
MODEL       75
REMARK  Name = 
REMARK  4 active torsions:
REMARK  status: ('A' for Active; 'I' for Inactive)
REMARK    1  A    between atoms: C_1  and  N_2
REMARK    2  A    between atoms: C_3  and  C_4
REMARK    3  A    between atoms: N_12  and  C_13
REMARK    4  A    between atoms: N_16  and  C_17
REMARK                            x       y       z     vdW  Elec       q    Type
REMARK                         _______ _______ _______ _____ _____    ______ ____
ROOT
ATOM      1  C   UNL     1       1.707  -2.244  -0.984  0.00  0.00    +0.000 C 
ATOM      2  N   UNL     1       1.171  -0.943  -0.670  0.00  0.00    +0.000 N 
ATOM      3  C   UNL     1       1.915   0.184  -0.558  0.00  0.00    +0.000 A 
ATOM      7  N   UNL     1       1.063   1.174  -0.924  0.00  0.00    +0.000 NA
ATOM      8  C   UNL     1      -0.217   0.746  -0.793  0.00  0.00    +0.000 A 
ATOM      9  C   UNL     1      -0.148  -0.625  -0.667  0.00  0.00    +0.000 A 
ATOM     10  C   UNL     1      -1.249  -1.333  -0.198  0.00  0.00    +0.000 A 
ATOM     11  O   UNL     1      -1.111  -2.567  -0.070  0.00  0.00    +0.000 OA
ATOM     12  N   UNL     1      -2.270  -0.639   0.369  0.00  0.00    +0.000 N 
ATOM     13  C   UNL     1      -3.249  -1.377   1.160  0.00  0.00    +0.000 C 
ATOM     14  C   UNL     1      -2.229   0.710   0.466  0.00  0.00    +0.000 A 
ATOM     15  O   UNL     1      -2.984   1.360   1.246  0.00  0.00    +0.000 OA
ATOM     16  N   UNL     1      -1.376   1.320  -0.392  0.00  0.00    +0.000 N 
ATOM     17  C   UNL     1      -1.387   2.779  -0.414  0.00  0.00    +0.000 C 
ENDROOT
BRANCH   3   4
ATOM      4  C   UNL     1       3.305   0.282  -0.045  0.00  0.00    +0.000 C 
ATOM      5  C   UNL     1       3.618  -0.136   1.356  0.00  0.00    +0.000 C 
ATOM      6  C   UNL     1       3.441   1.308   1.119  0.00  0.00    +0.000 C 
ENDBRANCH   3   4
TORSDOF 1
ENDMDL
MODEL       76
REMARK  Name = 
REMARK  4 active torsions:
REMARK  status: ('A' for Active; 'I' for Inactive)
REMARK    1  A    between atoms: C_1  and  N_2
REMARK    2  A    between atoms: C_3  and  N_4
REMARK    3  A    between atoms: N_12  and  C_13
REMARK    4  A    between atoms: N_16  and  C_17
REMARK                            x       y       z     vdW  Elec       q    Type
REMARK                         _______ _______ _______ _____ _____    ______ ____
ROOT
ATOM      1  C   UNL     1       1.205   2.760   0.316  0.00  0.00    +0.000 C 
ATOM      2  N   UNL     1       0.986   1.324   0.370  0.00  0.00    +0.000 N 
ATOM      3  C   UNL     1       1.938   0.381   0.272  0.00  0.00    +0.000 A 
ATOM      7  N   UNL     1       1.277  -0.793   0.127  0.00  0.00    +0.000 NA
ATOM      8  C   UNL     1      -0.036  -0.584  -0.042  0.00  0.00    +0.000 A 
ATOM      9  C   UNL     1      -0.236   0.768   0.212  0.00  0.00    +0.000 A 
ATOM     10  C   UNL     1      -1.534   1.231   0.204  0.00  0.00    +0.000 A 
ATOM     11  O   UNL     1      -1.725   2.416  -0.172  0.00  0.00    +0.000 OA
ATOM     12  N   UNL     1      -2.547   0.332   0.165  0.00  0.00    +0.000 N 
ATOM     13  C   UNL     1      -3.932   0.759  -0.001  0.00  0.00    +0.000 C 
ATOM     14  C   UNL     1      -2.317  -1.000   0.170  0.00  0.00    +0.000 A 
ATOM     15  O   UNL     1      -3.271  -1.829   0.244  0.00  0.00    +0.000 OA
ATOM     16  N   UNL     1      -1.058  -1.445  -0.043  0.00  0.00    +0.000 N 
ATOM     17  C   UNL     1      -0.845  -2.876   0.137  0.00  0.00    +0.000 C 
ENDROOT
BRANCH   3   4
ATOM      4  N   UNL     1       3.335   0.539   0.429  0.00  0.00    +0.000 NA
ATOM      5  N   UNL     1       4.067  -0.456   0.495  0.00  0.00    +0.000 NA
ATOM      6  N   UNL     1       4.692  -1.526   0.543  0.00  0.00    +0.000 NA
ENDBRANCH   3   4
TORSDOF 1
ENDMDL
MODEL       77
REMARK  Name = 
REMARK  4 active torsions:
REMARK  status: ('A' for Active; 'I' for Inactive)
REMARK    1  A    between atoms: C_1  and  N_2
REMARK    2  A    between atoms: C_3  and  C_4
REMARK    3  A    between atoms: N_11  and  C_12
REMARK    4  A    between atoms: N_15  and  C_16
REMARK                            x       y       z     vdW  Elec       q    Type
REMARK                         _______ _______ _______ _____ _____    ______ ____
ROOT
ATOM      1  C   UNL     1       2.137  -1.770   0.939  0.00  0.00    +0.000 C 
ATOM      2  N   UNL     1       1.576  -0.661   0.214  0.00  0.00    +0.000 N 
ATOM      3  C   UNL     1       2.129   0.435  -0.311  0.00  0.00    +0.000 A 
ATOM      6  N   UNL     1       1.194   1.389  -0.533  0.00  0.00    +0.000 NA
ATOM      7  C   UNL     1       0.004   0.782  -0.345  0.00  0.00    +0.000 A 
ATOM      8  C   UNL     1       0.258  -0.556  -0.069  0.00  0.00    +0.000 A 
ATOM      9  C   UNL     1      -0.828  -1.389  -0.031  0.00  0.00    +0.000 A 
ATOM     10  O   UNL     1      -0.618  -2.631   0.102  0.00  0.00    +0.000 OA
ATOM     11  N   UNL     1      -2.063  -0.864   0.116  0.00  0.00    +0.000 N 
ATOM     12  C   UNL     1      -3.203  -1.719  -0.126  0.00  0.00    +0.000 C 
ATOM     13  C   UNL     1      -2.187   0.471   0.248  0.00  0.00    +0.000 A 
ATOM     14  O   UNL     1      -3.270   0.910   0.723  0.00  0.00    +0.000 OA
ATOM     15  N   UNL     1      -1.215   1.325  -0.100  0.00  0.00    +0.000 N 
ATOM     16  C   UNL     1      -1.498   2.729  -0.373  0.00  0.00    +0.000 C 
ENDROOT
BRANCH   3   4
ATOM      4  C   UNL     1       3.583   0.709  -0.316  0.00  0.00    +0.000 C 
ATOM      5  F   UNL     1       4.001   0.840   1.001  0.00  0.00    +0.000 F 
ENDBRANCH   3   4
TORSDOF 1
ENDMDL
MODEL       78
REMARK  Name = 
REMARK  5 active torsions:
REMARK  status: ('A' for Active; 'I' for Inactive)
REMARK    1  A    between atoms: C_1  and  C_2
REMARK    2  A    between atoms: C_2  and  N_3
REMARK    3  A    between atoms: N_10  and  C_11
REMARK    4  A    between atoms: N_14  and  C_15
REMARK    5  A    between atoms: N_16  and  C_17
REMARK                            x       y       z     vdW  Elec       q    Type
REMARK                         _______ _______ _______ _____ _____    ______ ____
ROOT
ATOM      3  N   UNL     1       3.109  -0.605   0.976  0.00  0.00    +0.000 N 
ATOM      4  C   UNL     1       1.852  -0.408   0.316  0.00  0.00    +0.000 A 
ATOM      5  N   UNL     1       0.924  -1.362   0.054  0.00  0.00    +0.000 NA
ATOM      6  C   UNL     1      -0.300  -0.852   0.300  0.00  0.00    +0.000 A 
ATOM      7  C   UNL     1      -0.149   0.525   0.315  0.00  0.00    +0.000 A 
ATOM      8  C   UNL     1      -1.278   1.300   0.340  0.00  0.00    +0.000 A 
ATOM      9  O   UNL     1      -1.160   2.542   0.417  0.00  0.00    +0.000 OA
ATOM     10  N   UNL     1      -2.473   0.775  -0.006  0.00  0.00    +0.000 N 
ATOM     11  C   UNL     1      -3.525   1.622  -0.565  0.00  0.00    +0.000 C 
ATOM     12  C   UNL     1      -2.641  -0.567   0.088  0.00  0.00    +0.000 A 
ATOM     13  O   UNL     1      -3.637  -1.066  -0.519  0.00  0.00    +0.000 OA
ATOM     14  N   UNL     1      -1.552  -1.313   0.398  0.00  0.00    +0.000 N 
ATOM     15  C   UNL     1      -1.727  -2.751   0.482  0.00  0.00    +0.000 C 
ATOM     16  N   UNL     1       1.169   0.755   0.451  0.00  0.00    +0.000 N 
ATOM     17  C   UNL     1       1.771   2.047   0.132  0.00  0.00    +0.000 C 
ATOM     18  H   UNL     1       3.143  -0.535   1.957  0.00  0.00    +0.000 HD
ENDROOT
BRANCH   3   2
ATOM      1  C   UNL     1       5.288   0.259   0.453  0.00  0.00    +0.000 C 
ATOM      2  C   UNL     1       4.329  -0.901   0.260  0.00  0.00    +0.000 C 
ENDBRANCH   3   2
TORSDOF 1
ENDMDL
MODEL       79
REMARK  Name = 
REMARK  5 active torsions:
REMARK  status: ('A' for Active; 'I' for Inactive)
REMARK    1  A    between atoms: C_1  and  C_2
REMARK    2  A    between atoms: C_2  and  C_3
REMARK    3  A    between atoms: N_9  and  C_10
REMARK    4  A    between atoms: N_13  and  C_14
REMARK    5  A    between atoms: N_15  and  C_16
REMARK                            x       y       z     vdW  Elec       q    Type
REMARK                         _______ _______ _______ _____ _____    ______ ____
ROOT
ATOM      3  C   UNL     1       2.171   0.087  -0.299  0.00  0.00    +0.000 A 
ATOM      4  N   UNL     1       1.408   1.174  -0.124  0.00  0.00    +0.000 NA
ATOM      5  C   UNL     1       0.120   0.819  -0.024  0.00  0.00    +0.000 A 
ATOM      6  C   UNL     1       0.105  -0.543   0.107  0.00  0.00    +0.000 A 
ATOM      7  C   UNL     1      -1.121  -1.197   0.109  0.00  0.00    +0.000 A 
ATOM      8  O   UNL     1      -1.094  -2.411   0.427  0.00  0.00    +0.000 OA
ATOM      9  N   UNL     1      -2.237  -0.452   0.300  0.00  0.00    +0.000 N 
ATOM     10  C   UNL     1      -3.488  -1.065   0.737  0.00  0.00    +0.000 C 
ATOM     11  C   UNL     1      -2.143   0.888   0.478  0.00  0.00    +0.000 A 
ATOM     12  O   UNL     1      -3.060   1.522   1.060  0.00  0.00    +0.000 OA
ATOM     13  N   UNL     1      -1.004   1.534   0.141  0.00  0.00    +0.000 N 
ATOM     14  C   UNL     1      -0.867   2.937   0.520  0.00  0.00    +0.000 C 
ATOM     15  N   UNL     1       1.381  -0.965  -0.063  0.00  0.00    +0.000 N 
ATOM     16  C   UNL     1       1.689  -2.310  -0.535  0.00  0.00    +0.000 C 
ENDROOT
BRANCH   3   2
ATOM      1  C   UNL     1       4.597  -0.154   0.197  0.00  0.00    +0.000 C 
ATOM      2  C   UNL     1       3.545   0.135  -0.867  0.00  0.00    +0.000 C 
ENDBRANCH   3   2
TORSDOF 1
ENDMDL
MODEL       80
REMARK  Name = 
REMARK  3 active torsions:
REMARK  status: ('A' for Active; 'I' for Inactive)
REMARK    1  A    between atoms: C_1  and  N_2
REMARK    2  A    between atoms: N_12  and  C_13
REMARK    3  A    between atoms: N_16  and  C_17
REMARK                            x       y       z     vdW  Elec       q    Type
REMARK                         _______ _______ _______ _____ _____    ______ ____
ROOT
ATOM      1  C   UNL     1       1.504  -2.482  -0.355  0.00  0.00    +0.000 C 
ATOM      2  N   UNL     1       1.099  -1.102  -0.397  0.00  0.00    +0.000 N 
ATOM      3  C   UNL     1       1.942  -0.044  -0.320  0.00  0.00    +0.000 A 
ATOM      4  N   UNL     1       3.277  -0.006   0.195  0.00  0.00    +0.000 N 
ATOM      5  O   UNL     1       4.007   0.910  -0.260  0.00  0.00    +0.000 OA
ATOM      6  O   UNL     1       3.537  -0.368   1.505  0.00  0.00    +0.000 OA
ATOM      7  N   UNL     1       1.208   0.991  -0.798  0.00  0.00    +0.000 NA
ATOM      8  C   UNL     1      -0.105   0.674  -0.684  0.00  0.00    +0.000 A 
ATOM      9  C   UNL     1      -0.173  -0.693  -0.439  0.00  0.00    +0.000 A 
ATOM     10  C   UNL     1      -1.376  -1.176   0.062  0.00  0.00    +0.000 A 
ATOM     11  O   UNL     1      -1.425  -2.412   0.249  0.00  0.00    +0.000 OA
ATOM     12  N   UNL     1      -2.299  -0.340   0.601  0.00  0.00    +0.000 N 
ATOM     13  C   UNL     1      -3.353  -0.827   1.449  0.00  0.00    +0.000 C 
ATOM     14  C   UNL     1      -2.276   0.959   0.216  0.00  0.00    +0.000 A 
ATOM     15  O   UNL     1      -3.070   1.819   0.685  0.00  0.00    +0.000 OA
ATOM     16  N   UNL     1      -1.203   1.438  -0.460  0.00  0.00    +0.000 N 
ATOM     17  C   UNL     1      -1.294   2.659  -1.252  0.00  0.00    +0.000 C 
ENDROOT
TORSDOF 0
ENDMDL
MODEL       81
REMARK  Name = 
REMARK  4 active torsions:
REMARK  status: ('A' for Active; 'I' for Inactive)
REMARK    1  A    between atoms: C_1  and  C_2
REMARK    2  A    between atoms: C_2  and  N_3
REMARK    3  A    between atoms: N_10  and  C_11
REMARK    4  A    between atoms: N_14  and  C_15
REMARK                            x       y       z     vdW  Elec       q    Type
REMARK                         _______ _______ _______ _____ _____    ______ ____
ROOT
ATOM      3  N   UNL     1       1.919  -0.378  -0.156  0.00  0.00    +0.000 N 
ATOM      4  C   UNL     1       1.976  -1.730  -0.119  0.00  0.00    +0.000 A 
ATOM      5  N   UNL     1       0.720  -2.225  -0.240  0.00  0.00    +0.000 NA
ATOM      6  C   UNL     1      -0.171  -1.208  -0.213  0.00  0.00    +0.000 A 
ATOM      7  C   UNL     1       0.604  -0.070  -0.241  0.00  0.00    +0.000 A 
ATOM      8  C   UNL     1      -0.037   1.139  -0.251  0.00  0.00    +0.000 A 
ATOM      9  O   UNL     1       0.656   2.171  -0.483  0.00  0.00    +0.000 OA
ATOM     10  N   UNL     1      -1.392   1.171  -0.235  0.00  0.00    +0.000 N 
ATOM     11  C   UNL     1      -1.959   2.492   0.025  0.00  0.00    +0.000 C 
ATOM     12  C   UNL     1      -2.021   0.070   0.185  0.00  0.00    +0.000 A 
ATOM     13  O   UNL     1      -3.227   0.174   0.543  0.00  0.00    +0.000 OA
ATOM     14  N   UNL     1      -1.504  -1.171   0.026  0.00  0.00    +0.000 N 
ATOM     15  C   UNL     1      -2.102  -2.198   0.878  0.00  0.00    +0.000 C 
ENDROOT
BRANCH   3   2
ATOM      1  C   UNL     1       3.678   1.315  -0.317  0.00  0.00    +0.000 C 
ATOM      2  C   UNL     1       2.861   0.446   0.597  0.00  0.00    +0.000 C 
ENDBRANCH   3   2
TORSDOF 1
ENDMDL
MODEL       82
REMARK  Name = 
REMARK  6 active torsions:
REMARK  status: ('A' for Active; 'I' for Inactive)
REMARK    1  A    between atoms: C_1  and  N_2
REMARK    2  A    between atoms: N_6  and  C_7
REMARK    3  A    between atoms: C_7  and  C_8
REMARK    4  A    between atoms: C_8  and  C_9
REMARK    5  A    between atoms: C_9  and  O_10
REMARK    6  A    between atoms: N_14  and  C_15
REMARK                            x       y       z     vdW  Elec       q    Type
REMARK                         _______ _______ _______ _____ _____    ______ ____
ROOT
ATOM      1  C   UNL     1      -2.557  -2.389   0.470  0.00  0.00    +0.000 C 
ATOM      2  N   UNL     1      -1.983  -1.115   0.109  0.00  0.00    +0.000 N 
ATOM      3  C   UNL     1      -0.652  -1.053  -0.126  0.00  0.00    +0.000 A 
ATOM      4  N   UNL     1       0.287  -1.920  -0.510  0.00  0.00    +0.000 NA
ATOM      5  C   UNL     1       1.399  -1.186  -0.762  0.00  0.00    +0.000 A 
ATOM      6  N   UNL     1       1.318  -0.011  -0.136  0.00  0.00    +0.000 N 
ATOM     11  C   UNL     1       0.007   0.134   0.171  0.00  0.00    +0.000 A 
ATOM     12  C   UNL     1      -0.744   1.247   0.521  0.00  0.00    +0.000 A 
ATOM     13  O   UNL     1      -0.194   2.260   1.039  0.00  0.00    +0.000 OA
ATOM     14  N   UNL     1      -2.093   1.236   0.399  0.00  0.00    +0.000 N 
ATOM     15  C   UNL     1      -2.768   2.483   0.049  0.00  0.00    +0.000 C 
ATOM     16  C   UNL     1      -2.679   0.034   0.273  0.00  0.00    +0.000 A 
ATOM     17  O   UNL     1      -3.905  -0.033  -0.043  0.00  0.00    +0.000 OA
ENDROOT
BRANCH   6   7
ATOM      7  C   UNL     1       2.317   0.913   0.325  0.00  0.00    +0.000 C 
BRANCH   7   8
ATOM      8  C   UNL     1       3.222   0.212   1.330  0.00  0.00    +0.000 C 
BRANCH   8   9
ATOM      9  C   UNL     1       4.037  -0.790   0.521  0.00  0.00    +0.000 C 
BRANCH   9  10
ATOM     10  O   UNL     1       4.987  -0.021  -0.171  0.00  0.00    +0.000 OA
ATOM     18  H   UNL     1       4.533   0.633  -0.724  0.00  0.00    +0.000 HD
ENDBRANCH   9  10
ENDBRANCH   8   9
ENDBRANCH   7   8
ENDBRANCH   6   7
TORSDOF 4
ENDMDL
MODEL       83
REMARK  Name = 
REMARK  5 active torsions:
REMARK  status: ('A' for Active; 'I' for Inactive)
REMARK    1  A    between atoms: C_1  and  S_2
REMARK    2  A    between atoms: S_2  and  C_3
REMARK    3  A    between atoms: C_3  and  N_4
REMARK    4  A    between atoms: N_11  and  C_12
REMARK    5  A    between atoms: N_15  and  C_16
REMARK                            x       y       z     vdW  Elec       q    Type
REMARK                         _______ _______ _______ _____ _____    ______ ____
ROOT
ATOM      4  N   UNL     1       1.546  -0.438  -0.584  0.00  0.00    +0.000 N 
ATOM      5  C   UNL     1       1.420  -1.730  -0.975  0.00  0.00    +0.000 A 
ATOM      6  N   UNL     1       0.378  -2.227  -0.266  0.00  0.00    +0.000 NA
ATOM      7  C   UNL     1      -0.380  -1.211   0.213  0.00  0.00    +0.000 A 
ATOM      8  C   UNL     1       0.370  -0.066  -0.027  0.00  0.00    +0.000 A 
ATOM      9  C   UNL     1      -0.215   1.129   0.336  0.00  0.00    +0.000 A 
ATOM     10  O   UNL     1       0.561   2.123   0.420  0.00  0.00    +0.000 OA
ATOM     11  N   UNL     1      -1.557   1.302   0.391  0.00  0.00    +0.000 N 
ATOM     12  C   UNL     1      -2.137   2.605   0.076  0.00  0.00    +0.000 C 
ATOM     13  C   UNL     1      -2.296   0.184   0.183  0.00  0.00    +0.000 A 
ATOM     14  O   UNL     1      -3.491   0.338  -0.178  0.00  0.00    +0.000 OA
ATOM     15  N   UNL     1      -1.723  -1.040   0.285  0.00  0.00    +0.000 N 
ATOM     16  C   UNL     1      -2.574  -2.185   0.476  0.00  0.00    +0.000 C 
ENDROOT
BRANCH   4   3
ATOM      3  C   UNL     1       2.412   0.494  -1.301  0.00  0.00    +0.000 C 
BRANCH   3   2
ATOM      1  C   UNL     1       3.737   0.015   1.311  0.00  0.00    +0.000 C 
ATOM      2  S   UNL     1       3.948   0.708  -0.361  0.00  0.00    +0.000 S 
ENDBRANCH   3   2
ENDBRANCH   4   3
TORSDOF 2
ENDMDL
MODEL       84
REMARK  Name = 
REMARK  5 active torsions:
REMARK  status: ('A' for Active; 'I' for Inactive)
REMARK    1  A    between atoms: C_1  and  C_2
REMARK    2  A    between atoms: C_3  and  C_4
REMARK    3  A    between atoms: C_4  and  N_5
REMARK    4  A    between atoms: N_12  and  C_13
REMARK    5  A    between atoms: N_16  and  C_17
REMARK                            x       y       z     vdW  Elec       q    Type
REMARK                         _______ _______ _______ _____ _____    ______ ____
ROOT
ATOM      5  N   UNL     1       1.345  -0.492  -0.351  0.00  0.00    +0.000 N 
ATOM      6  C   UNL     1       1.391  -1.708   0.233  0.00  0.00    +0.000 A 
ATOM      7  N   UNL     1       0.168  -2.124   0.576  0.00  0.00    +0.000 NA
ATOM      8  C   UNL     1      -0.659  -1.093   0.315  0.00  0.00    +0.000 A 
ATOM      9  C   UNL     1       0.054  -0.092  -0.323  0.00  0.00    +0.000 A 
ATOM     10  C   UNL     1      -0.642   1.044  -0.674  0.00  0.00    +0.000 A 
ATOM     11  O   UNL     1      -0.072   1.876  -1.407  0.00  0.00    +0.000 OA
ATOM     12  N   UNL     1      -1.875   1.257  -0.151  0.00  0.00    +0.000 N 
ATOM     13  C   UNL     1      -2.439   2.599  -0.167  0.00  0.00    +0.000 C 
ATOM     14  C   UNL     1      -2.508   0.272   0.513  0.00  0.00    +0.000 A 
ATOM     15  O   UNL     1      -3.593   0.453   1.143  0.00  0.00    +0.000 OA
ATOM     16  N   UNL     1      -2.005  -0.982   0.411  0.00  0.00    +0.000 N 
ATOM     17  C   UNL     1      -2.873  -2.132   0.461  0.00  0.00    +0.000 C 
ENDROOT
BRANCH   5   4
ATOM      4  C   UNL     1       2.320   0.088  -1.225  0.00  0.00    +0.000 C 
BRANCH   4   3
ATOM      1  C   UNL     1       3.428   0.644   1.376  0.00  0.00    +0.000 C 
ATOM      2  C   UNL     1       4.242   0.577   0.120  0.00  0.00    +0.000 C 
ATOM      3  C   UNL     1       3.719  -0.185  -0.849  0.00  0.00    +0.000 C 
ENDBRANCH   4   3
ENDBRANCH   5   4
TORSDOF 2
ENDMDL
MODEL       85
REMARK  Name = 
REMARK  4 active torsions:
REMARK  status: ('A' for Active; 'I' for Inactive)
REMARK    1  A    between atoms: C_1  and  N_2
REMARK    2  A    between atoms: N_4  and  N_5
REMARK    3  A    between atoms: N_11  and  C_12
REMARK    4  A    between atoms: N_15  and  C_16
REMARK                            x       y       z     vdW  Elec       q    Type
REMARK                         _______ _______ _______ _____ _____    ______ ____
ROOT
ATOM      1  C   UNL     1       2.014   2.227  -0.203  0.00  0.00    +0.000 C 
ATOM      2  N   UNL     1       1.456   1.038   0.435  0.00  0.00    +0.000 N 
ATOM      3  C   UNL     1       2.187  -0.100   0.522  0.00  0.00    +0.000 A 
ATOM      4  N   UNL     1       3.449  -0.378  -0.097  0.00  0.00    +0.000 N 
ATOM      6  N   UNL     1       1.325  -0.983   1.085  0.00  0.00    +0.000 NA
ATOM      7  C   UNL     1       0.052  -0.570   0.878  0.00  0.00    +0.000 A 
ATOM      8  C   UNL     1       0.137   0.748   0.448  0.00  0.00    +0.000 A 
ATOM      9  C   UNL     1      -1.006   1.267  -0.127  0.00  0.00    +0.000 A 
ATOM     10  O   UNL     1      -0.914   2.405  -0.676  0.00  0.00    +0.000 OA
ATOM     11  N   UNL     1      -2.012   0.482  -0.588  0.00  0.00    +0.000 N 
ATOM     12  C   UNL     1      -2.689   0.757  -1.853  0.00  0.00    +0.000 C 
ATOM     13  C   UNL     1      -2.094  -0.767  -0.065  0.00  0.00    +0.000 A 
ATOM     14  O   UNL     1      -3.003  -1.502  -0.520  0.00  0.00    +0.000 OA
ATOM     15  N   UNL     1      -1.149  -1.191   0.795  0.00  0.00    +0.000 N 
ATOM     16  C   UNL     1      -1.288  -2.520   1.363  0.00  0.00    +0.000 C 
ATOM     17  H   UNL     1       4.278  -0.191   0.400  0.00  0.00    +0.000 HD
ENDROOT
BRANCH   4   5
ATOM      5  N   UNL     1       3.537  -0.912  -1.398  0.00  0.00    +0.000 NA
ATOM     18  H   UNL     1       2.598  -1.047  -1.774  0.00  0.00    +0.000 HD
ATOM     19  H   UNL     1       4.023  -1.808  -1.366  0.00  0.00    +0.000 HD
ENDBRANCH   4   5
TORSDOF 1
ENDMDL
MODEL       86
REMARK  Name = 
REMARK  6 active torsions:
REMARK  status: ('A' for Active; 'I' for Inactive)
REMARK    1  A    between atoms: C_1  and  O_2
REMARK    2  A    between atoms: O_2  and  C_3
REMARK    3  A    between atoms: C_3  and  C_4
REMARK    4  A    between atoms: C_4  and  N_5
REMARK    5  A    between atoms: N_12  and  C_13
REMARK    6  A    between atoms: N_16  and  C_17
REMARK                            x       y       z     vdW  Elec       q    Type
REMARK                         _______ _______ _______ _____ _____    ______ ____
ROOT
ATOM      5  N   UNL     1       1.190   0.655  -0.881  0.00  0.00    +0.000 N 
ATOM      6  C   UNL     1       1.030   1.992  -0.866  0.00  0.00    +0.000 A 
ATOM      7  N   UNL     1      -0.120   2.319  -0.244  0.00  0.00    +0.000 NA
ATOM      8  C   UNL     1      -0.686   1.137   0.099  0.00  0.00    +0.000 A 
ATOM      9  C   UNL     1      -0.029   0.137  -0.597  0.00  0.00    +0.000 A 
ATOM     10  C   UNL     1      -0.553  -1.145  -0.719  0.00  0.00    +0.000 A 
ATOM     11  O   UNL     1      -0.075  -1.892  -1.607  0.00  0.00    +0.000 OA
ATOM     12  N   UNL     1      -1.682  -1.393  -0.050  0.00  0.00    +0.000 N 
ATOM     13  C   UNL     1      -2.478  -2.550  -0.433  0.00  0.00    +0.000 C 
ATOM     14  C   UNL     1      -2.114  -0.529   0.897  0.00  0.00    +0.000 A 
ATOM     15  O   UNL     1      -3.018  -0.886   1.709  0.00  0.00    +0.000 OA
ATOM     16  N   UNL     1      -1.766   0.778   0.823  0.00  0.00    +0.000 N 
ATOM     17  C   UNL     1      -2.613   1.831   1.349  0.00  0.00    +0.000 C 
ENDROOT
BRANCH   5   4
ATOM      4  C   UNL     1       2.338  -0.117  -1.343  0.00  0.00    +0.000 C 
BRANCH   4   3
ATOM      3  C   UNL     1       3.572   0.139  -0.529  0.00  0.00    +0.000 C 
BRANCH   3   2
ATOM      1  C   UNL     1       3.689  -0.793   1.567  0.00  0.00    +0.000 C 
ATOM      2  O   UNL     1       3.315   0.313   0.825  0.00  0.00    +0.000 OA
ENDBRANCH   3   2
ENDBRANCH   4   3
ENDBRANCH   5   4
TORSDOF 3
ENDMDL
MODEL       87
REMARK  Name = 
REMARK  6 active torsions:
REMARK  status: ('A' for Active; 'I' for Inactive)
REMARK    1  A    between atoms: C_1  and  N_2
REMARK    2  A    between atoms: N_9  and  C_10
REMARK    3  A    between atoms: C_10  and  C_11
REMARK    4  A    between atoms: C_11  and  C_12
REMARK    5  A    between atoms: C_12  and  O_13
REMARK    6  A    between atoms: N_16  and  C_17
REMARK                            x       y       z     vdW  Elec       q    Type
REMARK                         _______ _______ _______ _____ _____    ______ ____
ROOT
ATOM      1  C   UNL     1      -3.329  -1.998  -0.359  0.00  0.00    +0.000 C 
ATOM      2  N   UNL     1      -2.878  -0.710   0.106  0.00  0.00    +0.000 N 
ATOM      3  C   UNL     1      -3.565   0.410   0.397  0.00  0.00    +0.000 A 
ATOM      4  N   UNL     1      -2.737   1.483   0.423  0.00  0.00    +0.000 NA
ATOM      5  C   UNL     1      -1.514   1.054   0.121  0.00  0.00    +0.000 A 
ATOM      6  C   UNL     1      -1.579  -0.333   0.191  0.00  0.00    +0.000 A 
ATOM      7  C   UNL     1      -0.380  -1.032   0.150  0.00  0.00    +0.000 A 
ATOM      8  O   UNL     1      -0.370  -2.300   0.105  0.00  0.00    +0.000 OA
ATOM      9  N   UNL     1       0.804  -0.421  -0.099  0.00  0.00    +0.000 N 
ATOM     14  C   UNL     1       0.724   0.863  -0.529  0.00  0.00    +0.000 A 
ATOM     15  O   UNL     1       1.789   1.306  -1.048  0.00  0.00    +0.000 OA
ATOM     16  N   UNL     1      -0.396   1.605  -0.414  0.00  0.00    +0.000 N 
ATOM     17  C   UNL     1      -0.446   2.936  -0.962  0.00  0.00    +0.000 C 
ENDROOT
BRANCH   9  10
ATOM     10  C   UNL     1       1.934  -0.865   0.677  0.00  0.00    +0.000 C 
BRANCH  10  11
ATOM     11  C   UNL     1       3.096  -1.337  -0.131  0.00  0.00    +0.000 C 
BRANCH  11  12
ATOM     12  C   UNL     1       4.434  -0.997   0.501  0.00  0.00    +0.000 C 
BRANCH  12  13
ATOM     13  O   UNL     1       4.412   0.337   0.932  0.00  0.00    +0.000 OA
ATOM     18  H   UNL     1       4.250   0.919   0.174  0.00  0.00    +0.000 HD
ENDBRANCH  12  13
ENDBRANCH  11  12
ENDBRANCH  10  11
ENDBRANCH   9  10
TORSDOF 4
ENDMDL
MODEL       88
REMARK  Name = 
REMARK  4 active torsions:
REMARK  status: ('A' for Active; 'I' for Inactive)
REMARK    1  A    between atoms: C_2  and  C_3
REMARK    2  A    between atoms: N_9  and  C_10
REMARK    3  A    between atoms: N_13  and  C_14
REMARK    4  A    between atoms: N_15  and  C_16
REMARK                            x       y       z     vdW  Elec       q    Type
REMARK                         _______ _______ _______ _____ _____    ______ ____
ROOT
ATOM      3  C   UNL     1       2.175  -0.322  -0.286  0.00  0.00    +0.000 A 
ATOM      4  N   UNL     1       1.283  -1.338  -0.315  0.00  0.00    +0.000 NA
ATOM      5  C   UNL     1       0.089  -0.845   0.097  0.00  0.00    +0.000 A 
ATOM      6  C   UNL     1       0.145   0.496  -0.265  0.00  0.00    +0.000 A 
ATOM      7  C   UNL     1      -1.034   1.231  -0.317  0.00  0.00    +0.000 A 
ATOM      8  O   UNL     1      -0.961   2.487  -0.181  0.00  0.00    +0.000 OA
ATOM      9  N   UNL     1      -2.170   0.617   0.096  0.00  0.00    +0.000 N 
ATOM     10  C   UNL     1      -3.271   1.380   0.675  0.00  0.00    +0.000 C 
ATOM     11  C   UNL     1      -2.215  -0.736   0.095  0.00  0.00    +0.000 A 
ATOM     12  O   UNL     1      -3.333  -1.295  -0.018  0.00  0.00    +0.000 OA
ATOM     13  N   UNL     1      -1.089  -1.463   0.269  0.00  0.00    +0.000 N 
ATOM     14  C   UNL     1      -1.194  -2.901   0.494  0.00  0.00    +0.000 C 
ATOM     15  N   UNL     1       1.456   0.800  -0.426  0.00  0.00    +0.000 N 
ATOM     16  C   UNL     1       1.986   2.131  -0.157  0.00  0.00    +0.000 C 
ENDROOT
BRANCH   3   2
ATOM      1  C   UNL     1       4.534   0.293  -0.541  0.00  0.00    +0.000 C 
ATOM      2  C   UNL     1       3.598  -0.536  -0.145  0.00  0.00    +0.000 C 
ENDBRANCH   3   2
TORSDOF 1
ENDMDL
MODEL       89
REMARK  Name = 
REMARK  4 active torsions:
REMARK  status: ('A' for Active; 'I' for Inactive)
REMARK    1  A    between atoms: C_2  and  C_3
REMARK    2  A    between atoms: C_3  and  N_4
REMARK    3  A    between atoms: N_12  and  C_13
REMARK    4  A    between atoms: N_14  and  C_15
REMARK                            x       y       z     vdW  Elec       q    Type
REMARK                         _______ _______ _______ _____ _____    ______ ____
ROOT
ATOM      4  N   UNL     1       1.417  -0.077   0.320  0.00  0.00    +0.000 N 
ATOM      5  C   UNL     1       0.464   0.871   0.280  0.00  0.00    +0.000 A 
ATOM      6  O   UNL     1       0.819   2.060   0.065  0.00  0.00    +0.000 OA
ATOM      7  C   UNL     1      -0.849   0.498   0.477  0.00  0.00    +0.000 A 
ATOM      8  C   UNL     1      -1.132  -0.854   0.379  0.00  0.00    +0.000 A 
ATOM      9  N   UNL     1      -2.453  -0.932   0.120  0.00  0.00    +0.000 N 
ATOM     10  C   UNL     1      -3.005   0.284   0.345  0.00  0.00    +0.000 A 
ATOM     11  O   UNL     1      -4.177   0.527   0.761  0.00  0.00    +0.000 OA
ATOM     12  N   UNL     1      -2.000   1.183   0.417  0.00  0.00    +0.000 N 
ATOM     13  C   UNL     1      -2.071   2.617   0.293  0.00  0.00    +0.000 C 
ATOM     14  N   UNL     1      -0.158  -1.745   0.089  0.00  0.00    +0.000 N 
ATOM     15  C   UNL     1      -0.417  -3.151  -0.148  0.00  0.00    +0.000 C 
ATOM     16  C   UNL     1       1.118  -1.330  -0.101  0.00  0.00    +0.000 A 
ATOM     17  O   UNL     1       2.022  -2.100  -0.518  0.00  0.00    +0.000 OA
ATOM     18  H   UNL     1      -2.935  -1.736  -0.180  0.00  0.00    +0.000 HD
ENDROOT
BRANCH   4   3
ATOM      3  C   UNL     1       2.745   0.215   0.825  0.00  0.00    +0.000 C 
BRANCH   3   2
ATOM      1  C   UNL     1       4.182   0.783  -1.111  0.00  0.00    +0.000 C 
ATOM      2  C   UNL     1       3.494   1.151  -0.042  0.00  0.00    +0.000 C 
ENDBRANCH   3   2
ENDBRANCH   4   3
TORSDOF 2
ENDMDL
MODEL       90
REMARK  Name = 
REMARK  2 active torsions:
REMARK  status: ('A' for Active; 'I' for Inactive)
REMARK    1  A    between atoms: C_1  and  N_2
REMARK    2  A    between atoms: N_10  and  C_11
REMARK                            x       y       z     vdW  Elec       q    Type
REMARK                         _______ _______ _______ _____ _____    ______ ____
ROOT
ATOM      1  C   UNL     1      -2.003   2.437   1.295  0.00  0.00    +0.000 C 
ATOM      2  N   UNL     1      -1.793   1.413   0.273  0.00  0.00    +0.000 N 
ATOM      3  C   UNL     1      -0.542   1.178  -0.194  0.00  0.00    +0.000 A 
ATOM      4  N   UNL     1       0.578   1.939  -0.231  0.00  0.00    +0.000 NA
ATOM      5  C   UNL     1       1.655   1.123  -0.284  0.00  0.00    +0.000 A 
ATOM      6  N   UNL     1       1.248  -0.167  -0.377  0.00  0.00    +0.000 N 
ATOM      7  C   UNL     1      -0.090  -0.101  -0.496  0.00  0.00    +0.000 A 
ATOM      8  C   UNL     1      -1.012  -1.117  -0.577  0.00  0.00    +0.000 A 
ATOM      9  O   UNL     1      -0.635  -2.194  -1.077  0.00  0.00    +0.000 OA
ATOM     10  N   UNL     1      -2.309  -0.782  -0.386  0.00  0.00    +0.000 N 
ATOM     11  C   UNL     1      -3.268  -1.880  -0.352  0.00  0.00    +0.000 C 
ATOM     12  C   UNL     1      -2.631   0.347   0.290  0.00  0.00    +0.000 A 
ATOM     13  O   UNL     1      -3.585   0.326   1.125  0.00  0.00    +0.000 OA
ATOM     14  C   UNL     1       2.135  -1.200   0.067  0.00  0.00    +0.000 C 
ATOM     15  O   UNL     1       1.707  -2.318   0.490  0.00  0.00    +0.000 OA
ATOM     16  C   UNL     1       3.457  -0.844   0.661  0.00  0.00    +0.000 C 
ATOM     17  C   UNL     1       3.993   0.472   0.275  0.00  0.00    +0.000 C 
ATOM     18  C   UNL     1       3.095   1.367  -0.502  0.00  0.00    +0.000 C 
ENDROOT
TORSDOF 0
ENDMDL
MODEL       91
REMARK  Name = 
REMARK  3 active torsions:
REMARK  status: ('A' for Active; 'I' for Inactive)
REMARK    1  A    between atoms: C_1  and  C_2
REMARK    2  A    between atoms: N_11  and  C_12
REMARK    3  A    between atoms: N_15  and  C_16
REMARK                            x       y       z     vdW  Elec       q    Type
REMARK                         _______ _______ _______ _____ _____    ______ ____
ROOT
ATOM      1  C   UNL     1       4.629   0.718  -0.195  0.00  0.00    +0.000 C 
ATOM      2  C   UNL     1       3.274   0.653   0.735  0.00  0.00    +0.000 C 
ATOM      3  C   UNL     1       3.437  -0.961   0.894  0.00  0.00    +0.000 C 
ATOM      4  N   UNL     1       2.338  -1.693   0.594  0.00  0.00    +0.000 N 
ATOM      5  C   UNL     1       1.266  -1.355  -0.276  0.00  0.00    +0.000 A 
ATOM      6  N   UNL     1       0.107  -1.873  -0.715  0.00  0.00    +0.000 NA
ATOM      7  C   UNL     1      -0.839  -0.901  -0.738  0.00  0.00    +0.000 A 
ATOM      8  C   UNL     1      -0.173   0.308  -0.608  0.00  0.00    +0.000 A 
ATOM      9  C   UNL     1      -0.911   1.427  -0.200  0.00  0.00    +0.000 A 
ATOM     10  O   UNL     1      -0.261   2.484  -0.159  0.00  0.00    +0.000 OA
ATOM     11  N   UNL     1      -2.130   1.285   0.388  0.00  0.00    +0.000 N 
ATOM     12  C   UNL     1      -2.506   2.191   1.465  0.00  0.00    +0.000 C 
ATOM     13  C   UNL     1      -2.768   0.101   0.202  0.00  0.00    +0.000 A 
ATOM     14  O   UNL     1      -3.908  -0.057   0.654  0.00  0.00    +0.000 OA
ATOM     15  N   UNL     1      -2.182  -0.859  -0.550  0.00  0.00    +0.000 N 
ATOM     16  C   UNL     1      -2.826  -2.162  -0.547  0.00  0.00    +0.000 C 
ATOM     17  N   UNL     1       1.129  -0.004  -0.352  0.00  0.00    +0.000 N 
ATOM     18  C   UNL     1       2.325   0.696  -0.595  0.00  0.00    +0.000 C 
ATOM     19  H   UNL     1       2.272  -2.571   1.035  0.00  0.00    +0.000 HD
ENDROOT
TORSDOF 0
ENDMDL
MODEL       92
REMARK  Name = 
REMARK  3 active torsions:
REMARK  status: ('A' for Active; 'I' for Inactive)
REMARK    1  A    between atoms: C_1  and  C_2
REMARK    2  A    between atoms: N_11  and  C_12
REMARK    3  A    between atoms: N_15  and  C_16
REMARK                            x       y       z     vdW  Elec       q    Type
REMARK                         _______ _______ _______ _____ _____    ______ ____
ROOT
ATOM      1  C   UNL     1       2.840  -0.720  -1.194  0.00  0.00    +0.000 C 
ATOM      2  C   UNL     1       3.563  -0.753   0.294  0.00  0.00    +0.000 C 
ATOM      3  C   UNL     1       3.917   0.857   0.248  0.00  0.00    +0.000 C 
ATOM      4  N   UNL     1       2.766   1.625   0.342  0.00  0.00    +0.000 N 
ATOM      5  C   UNL     1       1.438   1.278  -0.051  0.00  0.00    +0.000 A 
ATOM      6  N   UNL     1       0.305   1.908  -0.346  0.00  0.00    +0.000 NA
ATOM      7  C   UNL     1      -0.640   0.941  -0.453  0.00  0.00    +0.000 A 
ATOM      8  C   UNL     1      -0.064  -0.275  -0.114  0.00  0.00    +0.000 A 
ATOM      9  C   UNL     1      -0.839  -1.402   0.005  0.00  0.00    +0.000 A 
ATOM     10  O   UNL     1      -0.224  -2.470   0.265  0.00  0.00    +0.000 OA
ATOM     11  N   UNL     1      -2.170  -1.254   0.159  0.00  0.00    +0.000 N 
ATOM     12  C   UNL     1      -2.970  -2.392   0.590  0.00  0.00    +0.000 C 
ATOM     13  C   UNL     1      -2.751  -0.061  -0.116  0.00  0.00    +0.000 A 
ATOM     14  O   UNL     1      -3.868   0.171   0.440  0.00  0.00    +0.000 OA
ATOM     15  N   UNL     1      -1.990   0.966  -0.568  0.00  0.00    +0.000 N 
ATOM     16  C   UNL     1      -2.649   2.172  -0.997  0.00  0.00    +0.000 C 
ATOM     17  N   UNL     1       1.177   0.004   0.343  0.00  0.00    +0.000 N 
ATOM     18  C   UNL     1       2.161  -0.594   1.152  0.00  0.00    +0.000 C 
ATOM     19  H   UNL     1       2.879   2.523   0.728  0.00  0.00    +0.000 HD
ENDROOT
TORSDOF 0
ENDMDL
MODEL       93
REMARK  Name = 
REMARK  5 active torsions:
REMARK  status: ('A' for Active; 'I' for Inactive)
REMARK    1  A    between atoms: C_1  and  C_2
REMARK    2  A    between atoms: C_3  and  C_4
REMARK    3  A    between atoms: C_4  and  N_5
REMARK    4  A    between atoms: N_13  and  C_14
REMARK    5  A    between atoms: N_17  and  C_18
REMARK                            x       y       z     vdW  Elec       q    Type
REMARK                         _______ _______ _______ _____ _____    ______ ____
ROOT
ATOM      5  N   UNL     1       1.188   0.997  -0.545  0.00  0.00    +0.000 N 
ATOM      6  C   UNL     1       1.160   2.088   0.241  0.00  0.00    +0.000 A 
ATOM      7  N   UNL     1       2.296   2.775   0.716  0.00  0.00    +0.000 N 
ATOM      8  N   UNL     1      -0.071   2.240   0.788  0.00  0.00    +0.000 NA
ATOM      9  C   UNL     1      -0.830   1.189   0.393  0.00  0.00    +0.000 A 
ATOM     10  C   UNL     1      -0.113   0.631  -0.659  0.00  0.00    +0.000 A 
ATOM     11  C   UNL     1      -0.702  -0.446  -1.307  0.00  0.00    +0.000 A 
ATOM     12  O   UNL     1      -0.168  -0.813  -2.371  0.00  0.00    +0.000 OA
ATOM     13  N   UNL     1      -1.810  -1.009  -0.788  0.00  0.00    +0.000 N 
ATOM     14  C   UNL     1      -2.332  -2.183  -1.436  0.00  0.00    +0.000 C 
ATOM     15  C   UNL     1      -2.223  -0.690   0.461  0.00  0.00    +0.000 A 
ATOM     16  O   UNL     1      -2.690  -1.580   1.233  0.00  0.00    +0.000 OA
ATOM     17  N   UNL     1      -1.898   0.543   0.923  0.00  0.00    +0.000 N 
ATOM     18  C   UNL     1      -2.369   0.891   2.251  0.00  0.00    +0.000 C 
ATOM     19  H   UNL     1       3.172   2.634   0.288  0.00  0.00    +0.000 HD
ATOM     20  H   UNL     1       2.214   3.396   1.476  0.00  0.00    +0.000 HD
ENDROOT
BRANCH   5   4
ATOM      4  C   UNL     1       2.330   0.304  -1.125  0.00  0.00    +0.000 C 
BRANCH   4   3
ATOM      1  C   UNL     1       2.680  -2.322   1.498  0.00  0.00    +0.000 C 
ATOM      2  C   UNL     1       3.180  -1.512   0.340  0.00  0.00    +0.000 C 
ATOM      3  C   UNL     1       2.372  -1.101  -0.614  0.00  0.00    +0.000 C 
ENDBRANCH   4   3
ENDBRANCH   5   4
TORSDOF 2
ENDMDL
MODEL       94
REMARK  Name = 
REMARK  5 active torsions:
REMARK  status: ('A' for Active; 'I' for Inactive)
REMARK    1  A    between atoms: C_1  and  C_2
REMARK    2  A    between atoms: C_3  and  C_4
REMARK    3  A    between atoms: C_4  and  N_5
REMARK    4  A    between atoms: N_13  and  C_14
REMARK    5  A    between atoms: N_17  and  C_18
REMARK                            x       y       z     vdW  Elec       q    Type
REMARK                         _______ _______ _______ _____ _____    ______ ____
ROOT
ATOM      5  N   UNL     1       1.048  -0.405  -0.197  0.00  0.00    +0.000 N 
ATOM      6  C   UNL     1       1.041  -1.687  -0.594  0.00  0.00    +0.000 A 
ATOM      7  N   UNL     1       2.208  -2.434  -0.935  0.00  0.00    +0.000 N 
ATOM      8  N   UNL     1      -0.253  -2.063  -0.689  0.00  0.00    +0.000 NA
ATOM      9  C   UNL     1      -1.064  -1.069  -0.261  0.00  0.00    +0.000 A 
ATOM     10  C   UNL     1      -0.193  -0.127   0.273  0.00  0.00    +0.000 A 
ATOM     11  C   UNL     1      -0.801   1.006   0.800  0.00  0.00    +0.000 A 
ATOM     12  O   UNL     1      -0.021   1.850   1.331  0.00  0.00    +0.000 OA
ATOM     13  N   UNL     1      -2.087   1.302   0.497  0.00  0.00    +0.000 N 
ATOM     14  C   UNL     1      -2.715   2.442   1.106  0.00  0.00    +0.000 C 
ATOM     15  C   UNL     1      -2.776   0.543  -0.377  0.00  0.00    +0.000 A 
ATOM     16  O   UNL     1      -3.652   1.065  -1.099  0.00  0.00    +0.000 OA
ATOM     17  N   UNL     1      -2.325  -0.709  -0.605  0.00  0.00    +0.000 N 
ATOM     18  C   UNL     1      -3.177  -1.649  -1.282  0.00  0.00    +0.000 C 
ATOM     19  H   UNL     1       3.100  -2.035  -0.815  0.00  0.00    +0.000 HD
ATOM     20  H   UNL     1       2.121  -3.348  -1.290  0.00  0.00    +0.000 HD
ENDROOT
BRANCH   5   4
ATOM      4  C   UNL     1       2.200   0.448   0.008  0.00  0.00    +0.000 C 
BRANCH   4   3
ATOM      1  C   UNL     1       4.847   0.843   0.697  0.00  0.00    +0.000 C 
ATOM      2  C   UNL     1       4.498   0.387  -0.685  0.00  0.00    +0.000 C 
ATOM      3  C   UNL     1       3.222   0.255  -1.069  0.00  0.00    +0.000 C 
ENDBRANCH   4   3
ENDBRANCH   5   4
TORSDOF 2
ENDMDL
MODEL       95
REMARK  Name = 
REMARK  5 active torsions:
REMARK  status: ('A' for Active; 'I' for Inactive)
REMARK    1  A    between atoms: C_1  and  C_2
REMARK    2  A    between atoms: C_2  and  N_3
REMARK    3  A    between atoms: C_4  and  S_5
REMARK    4  A    between atoms: N_11  and  C_12
REMARK    5  A    between atoms: N_15  and  C_16
REMARK                            x       y       z     vdW  Elec       q    Type
REMARK                         _______ _______ _______ _____ _____    ______ ____
ROOT
ATOM      3  N   UNL     1       1.713   0.071   0.003  0.00  0.00    +0.000 N 
ATOM      4  C   UNL     1       1.942  -1.265   0.029  0.00  0.00    +0.000 A 
ATOM      6  N   UNL     1       0.875  -1.770   0.695  0.00  0.00    +0.000 NA
ATOM      7  C   UNL     1      -0.156  -0.911   0.531  0.00  0.00    +0.000 A 
ATOM      8  C   UNL     1       0.382   0.282   0.082  0.00  0.00    +0.000 A 
ATOM      9  C   UNL     1      -0.477   1.333  -0.212  0.00  0.00    +0.000 A 
ATOM     10  O   UNL     1       0.012   2.298  -0.875  0.00  0.00    +0.000 OA
ATOM     11  N   UNL     1      -1.768   1.016  -0.479  0.00  0.00    +0.000 N 
ATOM     12  C   UNL     1      -2.556   1.722  -1.479  0.00  0.00    +0.000 C 
ATOM     13  C   UNL     1      -2.273  -0.015   0.236  0.00  0.00    +0.000 A 
ATOM     14  O   UNL     1      -3.477  -0.311  -0.030  0.00  0.00    +0.000 OA
ATOM     15  N   UNL     1      -1.474  -0.938   0.823  0.00  0.00    +0.000 N 
ATOM     16  C   UNL     1      -2.001  -2.123   1.444  0.00  0.00    +0.000 C 
ENDROOT
BRANCH   3   2
ATOM      1  C   UNL     1       3.415   1.747   0.600  0.00  0.00    +0.000 C 
ATOM      2  C   UNL     1       2.646   1.050  -0.499  0.00  0.00    +0.000 C 
ENDBRANCH   3   2
BRANCH   4   5
ATOM      5  S   UNL     1       3.197  -2.185  -0.866  0.00  0.00    +0.000 S 
ATOM     17  H   UNL     1       4.101  -1.319  -1.398  0.00  0.00    +0.000 HD
ENDBRANCH   4   5
TORSDOF 2
ENDMDL
MODEL       96
REMARK  Name = 
REMARK  3 active torsions:
REMARK  status: ('A' for Active; 'I' for Inactive)
REMARK    1  A    between atoms: C_1  and  N_2
REMARK    2  A    between atoms: N_10  and  C_11
REMARK    3  A    between atoms: N_14  and  C_15
REMARK                            x       y       z     vdW  Elec       q    Type
REMARK                         _______ _______ _______ _____ _____    ______ ____
ROOT
ATOM      1  C   UNL     1      -2.638   1.655  -0.708  0.00  0.00    +0.000 C 
ATOM      2  N   UNL     1      -1.890   0.501  -0.264  0.00  0.00    +0.000 N 
ATOM      3  C   UNL     1      -2.382  -0.658   0.234  0.00  0.00    +0.000 A 
ATOM      4  O   UNL     1      -3.469  -0.777   0.839  0.00  0.00    +0.000 OA
ATOM      5  N   UNL     1      -1.430  -1.587  -0.021  0.00  0.00    +0.000 N 
ATOM      6  C   UNL     1      -0.261  -0.938  -0.226  0.00  0.00    +0.000 A 
ATOM      7  C   UNL     1      -0.550   0.417  -0.238  0.00  0.00    +0.000 A 
ATOM      8  C   UNL     1       0.502   1.319  -0.293  0.00  0.00    +0.000 A 
ATOM      9  O   UNL     1       0.176   2.540  -0.305  0.00  0.00    +0.000 OA
ATOM     10  N   UNL     1       1.726   0.894   0.102  0.00  0.00    +0.000 N 
ATOM     11  C   UNL     1       2.663   1.842   0.675  0.00  0.00    +0.000 C 
ATOM     12  C   UNL     1       2.045  -0.412  -0.077  0.00  0.00    +0.000 A 
ATOM     13  O   UNL     1       3.133  -0.800   0.446  0.00  0.00    +0.000 OA
ATOM     14  N   UNL     1       1.023  -1.290  -0.139  0.00  0.00    +0.000 N 
ATOM     15  C   UNL     1       1.352  -2.705  -0.024  0.00  0.00    +0.000 C 
ATOM     16  H   UNL     1      -1.564  -2.562  -0.052  0.00  0.00    +0.000 HD
ENDROOT
TORSDOF 0
ENDMDL
MODEL       97
REMARK  Name = 
REMARK  4 active torsions:
REMARK  status: ('A' for Active; 'I' for Inactive)
REMARK    1  A    between atoms: C_1  and  N_2
REMARK    2  A    between atoms: C_3  and  S_4
REMARK    3  A    between atoms: N_10  and  C_11
REMARK    4  A    between atoms: N_14  and  C_15
REMARK                            x       y       z     vdW  Elec       q    Type
REMARK                         _______ _______ _______ _____ _____    ______ ____
ROOT
ATOM      1  C   UNL     1       2.313  -2.050   0.220  0.00  0.00    +0.000 C 
ATOM      2  N   UNL     1       1.764  -0.791  -0.249  0.00  0.00    +0.000 N 
ATOM      3  C   UNL     1       2.437   0.381  -0.148  0.00  0.00    +0.000 A 
ATOM      5  N   UNL     1       1.554   1.306  -0.603  0.00  0.00    +0.000 NA
ATOM      6  C   UNL     1       0.308   0.824  -0.516  0.00  0.00    +0.000 A 
ATOM      7  C   UNL     1       0.444  -0.548  -0.383  0.00  0.00    +0.000 A 
ATOM      8  C   UNL     1      -0.709  -1.269  -0.121  0.00  0.00    +0.000 A 
ATOM      9  O   UNL     1      -0.623  -2.516  -0.228  0.00  0.00    +0.000 OA
ATOM     10  N   UNL     1      -1.870  -0.678   0.251  0.00  0.00    +0.000 N 
ATOM     11  C   UNL     1      -2.882  -1.459   0.944  0.00  0.00    +0.000 C 
ATOM     12  C   UNL     1      -1.878   0.675   0.229  0.00  0.00    +0.000 A 
ATOM     13  O   UNL     1      -2.809   1.276   0.844  0.00  0.00    +0.000 OA
ATOM     14  N   UNL     1      -0.942   1.349  -0.484  0.00  0.00    +0.000 N 
ATOM     15  C   UNL     1      -1.051   2.805  -0.533  0.00  0.00    +0.000 C 
ENDROOT
BRANCH   3   4
ATOM      4  S   UNL     1       3.946   0.695   0.778  0.00  0.00    +0.000 S 
ATOM     16  H   UNL     1       4.562  -0.486   1.054  0.00  0.00    +0.000 HD
ENDBRANCH   3   4
TORSDOF 1
ENDMDL
MODEL       98
REMARK  Name = 
REMARK  5 active torsions:
REMARK  status: ('A' for Active; 'I' for Inactive)
REMARK    1  A    between atoms: C_1  and  N_2
REMARK    2  A    between atoms: N_9  and  C_10
REMARK    3  A    between atoms: C_10  and  C_11
REMARK    4  A    between atoms: C_11  and  O_13
REMARK    5  A    between atoms: N_16  and  C_17
REMARK                            x       y       z     vdW  Elec       q    Type
REMARK                         _______ _______ _______ _____ _____    ______ ____
ROOT
ATOM      1  C   UNL     1      -3.034  -2.019  -0.749  0.00  0.00    +0.000 C 
ATOM      2  N   UNL     1      -2.454  -0.983   0.080  0.00  0.00    +0.000 N 
ATOM      3  C   UNL     1      -2.973  -0.249   1.068  0.00  0.00    +0.000 A 
ATOM      4  N   UNL     1      -2.219   0.854   1.298  0.00  0.00    +0.000 NA
ATOM      5  C   UNL     1      -1.273   0.898   0.336  0.00  0.00    +0.000 A 
ATOM      6  C   UNL     1      -1.305  -0.355  -0.262  0.00  0.00    +0.000 A 
ATOM      7  C   UNL     1      -0.140  -0.800  -0.875  0.00  0.00    +0.000 A 
ATOM      8  O   UNL     1      -0.091  -1.966  -1.374  0.00  0.00    +0.000 OA
ATOM      9  N   UNL     1       0.979  -0.034  -0.830  0.00  0.00    +0.000 N 
ATOM     14  C   UNL     1       0.793   1.289  -0.615  0.00  0.00    +0.000 A 
ATOM     15  O   UNL     1       1.768   2.031  -0.859  0.00  0.00    +0.000 OA
ATOM     16  N   UNL     1      -0.332   1.777  -0.042  0.00  0.00    +0.000 N 
ATOM     17  C   UNL     1      -0.458   3.153   0.343  0.00  0.00    +0.000 C 
ENDROOT
BRANCH   9  10
ATOM     10  C   UNL     1       2.273  -0.677  -0.758  0.00  0.00    +0.000 C 
BRANCH  10  11
ATOM     11  C   UNL     1       2.736  -0.901   0.623  0.00  0.00    +0.000 C 
ATOM     12  O   UNL     1       3.249   0.057   1.274  0.00  0.00    +0.000 OA
BRANCH  11  13
ATOM     13  O   UNL     1       2.480  -2.074   1.341  0.00  0.00    +0.000 OA
ATOM     18  H   UNL     1       2.101  -2.815   0.909  0.00  0.00    +0.000 HD
ENDBRANCH  11  13
ENDBRANCH  10  11
ENDBRANCH   9  10
TORSDOF 3
ENDMDL
MODEL       99
REMARK  Name = 
REMARK  3 active torsions:
REMARK  status: ('A' for Active; 'I' for Inactive)
REMARK    1  A    between atoms: C_1  and  C_2
REMARK    2  A    between atoms: N_11  and  C_12
REMARK    3  A    between atoms: N_15  and  C_16
REMARK                            x       y       z     vdW  Elec       q    Type
REMARK                         _______ _______ _______ _____ _____    ______ ____
ROOT
ATOM      1  C   UNL     1       3.557  -0.629  -1.045  0.00  0.00    +0.000 C 
ATOM      2  C   UNL     1       2.642   0.752  -1.002  0.00  0.00    +0.000 C 
ATOM      3  C   UNL     1       3.241   1.170   0.481  0.00  0.00    +0.000 C 
ATOM      4  N   UNL     1       3.063  -0.075   1.185  0.00  0.00    +0.000 N 
ATOM      5  C   UNL     1       1.866  -0.669   0.662  0.00  0.00    +0.000 A 
ATOM      6  N   UNL     1       0.784  -1.390   1.065  0.00  0.00    +0.000 NA
ATOM      7  C   UNL     1      -0.339  -0.867   0.511  0.00  0.00    +0.000 A 
ATOM      8  C   UNL     1       0.076   0.207  -0.275  0.00  0.00    +0.000 A 
ATOM      9  C   UNL     1      -0.854   1.116  -0.768  0.00  0.00    +0.000 A 
ATOM     10  O   UNL     1      -0.420   2.283  -1.012  0.00  0.00    +0.000 OA
ATOM     11  N   UNL     1      -2.129   0.916  -0.349  0.00  0.00    +0.000 N 
ATOM     12  C   UNL     1      -3.052   2.038  -0.194  0.00  0.00    +0.000 C 
ATOM     13  C   UNL     1      -2.513  -0.342  -0.020  0.00  0.00    +0.000 A 
ATOM     14  O   UNL     1      -3.739  -0.616   0.090  0.00  0.00    +0.000 OA
ATOM     15  N   UNL     1      -1.630  -1.266   0.431  0.00  0.00    +0.000 N 
ATOM     16  C   UNL     1      -1.953  -2.663   0.593  0.00  0.00    +0.000 C 
ATOM     17  N   UNL     1       1.401   0.034  -0.355  0.00  0.00    +0.000 N 
ATOM     18  H   UNL     1       3.647  -0.445   1.886  0.00  0.00    +0.000 HD
ENDROOT
TORSDOF 0
ENDMDL
MODEL      100
REMARK  Name = 
REMARK  3 active torsions:
REMARK  status: ('A' for Active; 'I' for Inactive)
REMARK    1  A    between atoms: C_1  and  C_2
REMARK    2  A    between atoms: N_11  and  C_12
REMARK    3  A    between atoms: N_15  and  C_16
REMARK                            x       y       z     vdW  Elec       q    Type
REMARK                         _______ _______ _______ _____ _____    ______ ____
ROOT
ATOM      1  C   UNL     1       3.198  -0.905   1.225  0.00  0.00    +0.000 C 
ATOM      2  C   UNL     1       2.558   0.608   1.079  0.00  0.00    +0.000 C 
ATOM      3  C   UNL     1       3.491   0.939  -0.235  0.00  0.00    +0.000 C 
ATOM      4  N   UNL     1       3.205  -0.248  -1.036  0.00  0.00    +0.000 N 
ATOM      5  C   UNL     1       1.848  -0.627  -0.769  0.00  0.00    +0.000 A 
ATOM      6  N   UNL     1       0.755  -1.173  -1.367  0.00  0.00    +0.000 NA
ATOM      7  C   UNL     1      -0.377  -0.636  -0.851  0.00  0.00    +0.000 A 
ATOM      8  C   UNL     1       0.083   0.380  -0.019  0.00  0.00    +0.000 A 
ATOM      9  C   UNL     1      -0.848   1.260   0.490  0.00  0.00    +0.000 A 
ATOM     10  O   UNL     1      -0.425   2.321   0.985  0.00  0.00    +0.000 OA
ATOM     11  N   UNL     1      -2.135   0.918   0.356  0.00  0.00    +0.000 N 
ATOM     12  C   UNL     1      -3.138   1.875   0.803  0.00  0.00    +0.000 C 
ATOM     13  C   UNL     1      -2.530  -0.326  -0.015  0.00  0.00    +0.000 A 
ATOM     14  O   UNL     1      -3.545  -0.828   0.558  0.00  0.00    +0.000 OA
ATOM     15  N   UNL     1      -1.615  -1.139  -0.601  0.00  0.00    +0.000 N 
ATOM     16  C   UNL     1      -1.899  -2.563  -0.772  0.00  0.00    +0.000 C 
ATOM     17  N   UNL     1       1.373   0.145   0.170  0.00  0.00    +0.000 N 
ATOM     18  H   UNL     1       3.829  -0.704  -1.646  0.00  0.00    +0.000 HD
ENDROOT
TORSDOF 0
ENDMDL
